$ Spice netlist generated by v2lvs
$ v2019.2_26.18    Tue May 7 10:56:43 PDT 2019
.INCLUDE "/opt/libraries/TSMCHOME/digital/Back_End/spice/tcb018gbwp7t_270a/tcb018gbwp7t_270a.spi" 
*.BUSDELIMITER [ 

.SUBCKT aes_rcon clk kld out[31] out[30] out[29] out[28] out[27] out[26] 
+ out[25] out[24] out[23] out[22] out[21] out[20] out[19] out[18] out[17] 
+ out[16] out[15] out[14] out[13] out[12] out[11] out[10] out[9] out[8] out[7] 
+ out[6] out[5] out[4] out[3] out[2] out[1] out[0] 
*.CONNECT out[0] out[23]
*.CONNECT out[1] out[23]
*.CONNECT out[2] out[23]
*.CONNECT out[3] out[23]
*.CONNECT out[4] out[23]
*.CONNECT out[5] out[23]
*.CONNECT out[6] out[23]
*.CONNECT out[7] out[23]
*.CONNECT out[8] out[23]
*.CONNECT out[9] out[23]
*.CONNECT out[10] out[23]
*.CONNECT out[11] out[23]
*.CONNECT out[12] out[23]
*.CONNECT out[13] out[23]
*.CONNECT out[14] out[23]
*.CONNECT out[15] out[23]
*.CONNECT out[16] out[23]
*.CONNECT out[17] out[23]
*.CONNECT out[18] out[23]
*.CONNECT out[19] out[23]
*.CONNECT out[20] out[23]
*.CONNECT out[21] out[23]
*.CONNECT out[22] out[23]
Xrcnt_reg[0] DFQD0BWP7T $PINS D=N78 CP=clk Q=rcnt[0] 
Xrcnt_reg[1] DFKCNQD1BWP7T $PINS CN=n5 D=n4 CP=clk Q=rcnt[1] 
Xrcnt_reg[2] DFKCNQD1BWP7T $PINS CN=n5 D=n1 CP=clk Q=rcnt[2] 
Xout_reg[24] DFQD0BWP7T $PINS D=N70 CP=clk Q=out[24] 
Xrcnt_reg[3] DFQD0BWP7T $PINS D=N81 CP=clk Q=rcnt[3] 
Xout_reg[25] DFQD0BWP7T $PINS D=N71 CP=clk Q=out[25] 
Xout_reg[31] DFQD0BWP7T $PINS D=N77 CP=clk Q=out[31] 
Xout_reg[30] DFQD0BWP7T $PINS D=N76 CP=clk Q=out[30] 
Xout_reg[29] DFQD0BWP7T $PINS D=N75 CP=clk Q=out[29] 
Xout_reg[28] DFQD0BWP7T $PINS D=N74 CP=clk Q=out[28] 
Xout_reg[27] DFQD0BWP7T $PINS D=N73 CP=clk Q=out[27] 
Xout_reg[26] DFQD0BWP7T $PINS D=N72 CP=clk Q=out[26] 
XU3 TIELBWP7T $PINS ZN=out[23] 
XU4 INVD1BWP7T $PINS I=n3 ZN=n5 
XU5 CKBD1BWP7T $PINS I=kld Z=n3 
XU6 CKND0BWP7T $PINS I=n6 ZN=n1 
XU7 OAI21D0BWP7T $PINS A1=N70 A2=n7 B=n8 ZN=N81 
XU8 NR3D0BWP7T $PINS A1=n9 A2=rcnt[0] A3=n10 ZN=N77 
XU9 NR3D0BWP7T $PINS A1=n9 A2=n11 A3=n10 ZN=N76 
XU10 OAI31D0BWP7T $PINS A1=n9 A2=rcnt[0] A3=n4 B=n12 ZN=N75 
XU11 CKND0BWP7T $PINS I=n13 ZN=n9 
XU12 OAI31D0BWP7T $PINS A1=n11 A2=n4 A3=n14 B=n12 ZN=N74 
XU13 AOI31D0BWP7T $PINS A1=n6 A2=n5 A3=n15 B=n13 ZN=n14 
XU14 NR3D0BWP7T $PINS A1=n6 A2=n3 A3=n15 ZN=n13 
XU15 CKND0BWP7T $PINS I=rcnt[0] ZN=n11 
XU16 MUX2ND0BWP7T $PINS I0=n16 I1=n17 S=n4 ZN=N73 
XU17 IND3D0BWP7T $PINS A1=n15 B1=n6 B2=N78 ZN=n17 
XU18 IND2D0BWP7T $PINS A1=n18 B1=n15 ZN=n16 
XU19 OAI31D0BWP7T $PINS A1=n18 A2=n10 A3=n15 B=n12 ZN=N72 
XU20 ND4D0BWP7T $PINS A1=N78 A2=n15 A3=n6 A4=n10 ZN=n12 
XU21 NR2D0BWP7T $PINS A1=n3 A2=rcnt[0] ZN=N78 
XU22 XNR2D1BWP7T $PINS A1=n19 A2=n7 ZN=n15 
XU23 NR2D0BWP7T $PINS A1=n20 A2=n21 ZN=n19 
XU24 ND3D0BWP7T $PINS A1=n6 A2=n5 A3=rcnt[0] ZN=n18 
XU25 CKXOR2D0BWP7T $PINS A1=rcnt[2] A2=n21 Z=n6 
XU26 OAI31D0BWP7T $PINS A1=n22 A2=n3 A3=n23 B=n8 ZN=N71 
XU27 ND4D0BWP7T $PINS A1=n23 A2=n22 A3=n5 A4=n7 ZN=n8 
XU28 CKND0BWP7T $PINS I=rcnt[3] ZN=n7 
XU29 AO21D0BWP7T $PINS A1=n22 A2=n23 B=n3 Z=N70 
XU30 CKXOR2D0BWP7T $PINS A1=rcnt[2] A2=n4 Z=n23 
XU31 CKND0BWP7T $PINS I=n10 ZN=n4 
XU32 OAI21D0BWP7T $PINS A1=n20 A2=n10 B=n21 ZN=n22 
XU33 OAI21D0BWP7T $PINS A1=rcnt[1] A2=rcnt[0] B=n21 ZN=n10 
XU34 CKND2D0BWP7T $PINS A1=rcnt[1] A2=rcnt[0] ZN=n21 
XU35 CKND0BWP7T $PINS I=rcnt[2] ZN=n20 
.ENDS

.SUBCKT aes_sbox_1 a[7] a[6] a[5] a[4] a[3] a[2] a[1] a[0] d[7] d[6] d[5] d[4] 
+ d[3] d[2] d[1] d[0] 
XU3 IND4D0BWP7T $PINS A1=n1 B1=n2 B2=n3 B3=n4 ZN=d[7] 
XU4 NR4D0BWP7T $PINS A1=n5 A2=n6 A3=n7 A4=n8 ZN=n4 
XU5 AOI21D0BWP7T $PINS A1=n9 A2=n10 B=n11 ZN=n8 
XU6 AOI21D0BWP7T $PINS A1=n12 A2=n13 B=n14 ZN=n7 
XU7 OAI22D0BWP7T $PINS A1=n15 A2=n16 B1=n17 B2=n18 ZN=n6 
XU8 OAI222D0BWP7T $PINS A1=n19 A2=n20 B1=n21 B2=n22 C1=n23 C2=n24 ZN=n5 
XU9 NR3D0BWP7T $PINS A1=n25 A2=n26 A3=n27 ZN=n3 
XU10 AOI22D0BWP7T $PINS A1=n28 A2=n29 B1=n30 B2=n31 ZN=n2 
XU11 ND4D0BWP7T $PINS A1=n32 A2=n33 A3=n34 A4=n35 ZN=d[6] 
XU12 AOI211D0BWP7T $PINS A1=n36 A2=n37 B=n38 C=n39 ZN=n35 
XU13 AOI21D0BWP7T $PINS A1=n40 A2=n41 B=n22 ZN=n39 
XU14 OAI22D0BWP7T $PINS A1=n42 A2=n43 B1=n44 B2=n45 ZN=n38 
XU15 AOI221D0BWP7T $PINS A1=n46 A2=n47 B1=n48 B2=n49 C=n50 ZN=n34 
XU16 OAI22D0BWP7T $PINS A1=n51 A2=n52 B1=n12 B2=n53 ZN=n50 
XU17 AOI221D0BWP7T $PINS A1=n54 A2=n55 B1=n56 B2=n57 C=n58 ZN=n33 
XU18 OAI22D0BWP7T $PINS A1=n59 A2=n60 B1=n61 B2=n62 ZN=n58 
XU19 NR4D0BWP7T $PINS A1=n63 A2=n1 A3=n64 A4=n65 ZN=n32 
XU20 ND4D0BWP7T $PINS A1=n66 A2=n67 A3=n68 A4=n69 ZN=n1 
XU21 AOI211D0BWP7T $PINS A1=n56 A2=n70 B=n71 C=n72 ZN=n69 
XU22 AOI21D0BWP7T $PINS A1=n73 A2=n51 B=n74 ZN=n72 
XU23 AOI21D0BWP7T $PINS A1=n17 A2=n59 B=n14 ZN=n71 
XU24 NR2D0BWP7T $PINS A1=n75 A2=n30 ZN=n17 
XU25 AOI222D0BWP7T $PINS A1=n48 A2=n76 B1=n77 B2=n78 C1=n79 C2=n80 ZN=n68 
XU26 AOI222D0BWP7T $PINS A1=n30 A2=n57 B1=n75 B2=n55 C1=n81 C2=n82 ZN=n67 
XU27 AOI22D0BWP7T $PINS A1=n83 A2=n84 B1=n36 B2=n29 ZN=n66 
XU28 IND4D0BWP7T $PINS A1=n85 B1=n86 B2=n87 B3=n88 ZN=d[5] 
XU29 NR4D0BWP7T $PINS A1=n89 A2=n90 A3=n91 A4=n92 ZN=n88 
XU30 AOI21D0BWP7T $PINS A1=n93 A2=n94 B=n95 ZN=n92 
XU31 IAO21D0BWP7T $PINS A1=n96 A2=n28 B=n51 ZN=n91 
XU32 MOAI22D0BWP7T $PINS A1=n97 A2=n53 B1=n70 B2=n30 ZN=n90 
XU33 OAI222D0BWP7T $PINS A1=n98 A2=n94 B1=n99 B2=n43 C1=n22 C2=n18 ZN=n89 
XU34 INR3D0BWP7T $PINS A1=n100 B1=n101 B2=n102 ZN=n87 
XU35 AOI22D0BWP7T $PINS A1=n48 A2=n55 B1=n75 B2=n81 ZN=n86 
XU36 ND4D0BWP7T $PINS A1=n103 A2=n104 A3=n105 A4=n106 ZN=d[4] 
XU37 NR4D0BWP7T $PINS A1=n107 A2=n108 A3=n109 A4=n110 ZN=n106 
XU38 IAO21D0BWP7T $PINS A1=n111 A2=n54 B=n95 ZN=n110 
XU39 AOI21D0BWP7T $PINS A1=n41 A2=n20 B=n112 ZN=n109 
XU40 OAI22D0BWP7T $PINS A1=n11 A2=n94 B1=n113 B2=n10 ZN=n108 
XU41 OAI222D0BWP7T $PINS A1=n74 A2=n22 B1=n59 B2=n53 C1=n45 C2=n52 ZN=n107 
XU42 AOI211D0BWP7T $PINS A1=n114 A2=n115 B=n116 C=n117 ZN=n105 
XU43 OAI22D0BWP7T $PINS A1=n13 A2=n98 B1=n9 B2=n14 ZN=n116 
XU44 NR2D0BWP7T $PINS A1=n85 A2=n118 ZN=n103 
XU45 ND4D0BWP7T $PINS A1=n119 A2=n120 A3=n121 A4=n122 ZN=n85 
XU46 AOI211D0BWP7T $PINS A1=n29 A2=n123 B=n124 C=n125 ZN=n122 
XU47 AOI21D0BWP7T $PINS A1=n51 A2=n126 B=n127 ZN=n125 
XU48 AOI21D0BWP7T $PINS A1=n24 A2=n95 B=n13 ZN=n124 
XU49 AOI222D0BWP7T $PINS A1=n28 A2=n56 B1=n128 B2=n129 C1=n115 C2=n130 ZN=n121 
XU50 AOI222D0BWP7T $PINS A1=n75 A2=n49 B1=n30 B2=n47 C1=n48 C2=n131 ZN=n120 
XU51 AOI22D0BWP7T $PINS A1=n81 A2=n132 B1=n83 B2=n78 ZN=n119 
XU52 ND3D0BWP7T $PINS A1=n133 A2=n134 A3=n135 ZN=d[3] 
XU53 NR4D0BWP7T $PINS A1=n136 A2=n137 A3=n138 A4=n139 ZN=n135 
XU54 AOI21D0BWP7T $PINS A1=n59 A2=n10 B=n95 ZN=n139 
XU55 AOI22D0BWP7T $PINS A1=n74 A2=n18 B1=n140 B2=n141 ZN=n138 
XU56 OAI22D0BWP7T $PINS A1=n142 A2=n24 B1=n97 B2=n127 ZN=n137 
XU57 NR2D0BWP7T $PINS A1=n30 A2=n143 ZN=n97 
XU58 OAI222D0BWP7T $PINS A1=n9 A2=n52 B1=n11 B2=n94 C1=n20 C2=n45 ZN=n136 
XU59 AOI211D0BWP7T $PINS A1=n75 A2=n144 B=n145 C=n146 ZN=n134 
XU60 OAI22D0BWP7T $PINS A1=n12 A2=n41 B1=n13 B2=n40 ZN=n145 
XU61 NR3D0BWP7T $PINS A1=n147 A2=n27 A3=n64 ZN=n133 
XU62 IIND4D0BWP7T $PINS A1=n148 A2=n26 B1=n149 B2=n150 ZN=n64 
XU63 NR4D0BWP7T $PINS A1=n151 A2=n152 A3=n153 A4=n154 ZN=n150 
XU64 AOI21D0BWP7T $PINS A1=n74 A2=n53 B=n155 ZN=n154 
XU65 AOI21D0BWP7T $PINS A1=n24 A2=n61 B=n13 ZN=n153 
XU66 AOI21D0BWP7T $PINS A1=n73 A2=n22 B=n98 ZN=n152 
XU67 NR2D0BWP7T $PINS A1=n83 A2=n46 ZN=n73 
XU68 OAI222D0BWP7T $PINS A1=n156 A2=n12 B1=n157 B2=n60 C1=n23 C2=n18 ZN=n151 
XU69 CKND0BWP7T $PINS I=n158 ZN=n157 
XU70 AOI221D0BWP7T $PINS A1=n77 A2=n36 B1=n56 B2=n84 C=n159 ZN=n149 
XU71 ND4D0BWP7T $PINS A1=n160 A2=n161 A3=n162 A4=n163 ZN=n26 
XU72 AOI211D0BWP7T $PINS A1=n28 A2=n164 B=n165 C=n166 ZN=n163 
XU73 AOI21D0BWP7T $PINS A1=n51 A2=n94 B=n14 ZN=n166 
XU74 IAO21D0BWP7T $PINS A1=n167 A2=n31 B=n22 ZN=n165 
XU75 AOI22D0BWP7T $PINS A1=n115 A2=n168 B1=n143 B2=n169 ZN=n162 
XU76 AOI222D0BWP7T $PINS A1=n131 A2=n80 B1=n48 B2=n144 C1=n56 C2=n55 ZN=n161 
XU77 AOI22D0BWP7T $PINS A1=n83 A2=n57 B1=n84 B2=n170 ZN=n160 
XU78 ND4D0BWP7T $PINS A1=n171 A2=n172 A3=n173 A4=n174 ZN=n27 
XU79 AOI211D0BWP7T $PINS A1=n81 A2=n175 B=n176 C=n177 ZN=n174 
XU80 AOI21D0BWP7T $PINS A1=n140 A2=n45 B=n95 ZN=n177 
XU81 AOI21D0BWP7T $PINS A1=n156 A2=n74 B=n16 ZN=n176 
XU82 AOI22D0BWP7T $PINS A1=n30 A2=n178 B1=n82 B2=n179 ZN=n173 
XU83 AOI22D0BWP7T $PINS A1=n75 A2=n180 B1=n47 B2=n128 ZN=n172 
XU84 AOI22D0BWP7T $PINS A1=n83 A2=n55 B1=n46 B2=n144 ZN=n171 
XU85 ND4D0BWP7T $PINS A1=n181 A2=n100 A3=n182 A4=n183 ZN=d[2] 
XU86 NR4D0BWP7T $PINS A1=n184 A2=n185 A3=n186 A4=n187 ZN=n183 
XU87 AOI21D0BWP7T $PINS A1=n188 A2=n13 B=n40 ZN=n187 
XU88 AOI21D0BWP7T $PINS A1=n189 A2=n9 B=n41 ZN=n186 
XU89 MOAI22D0BWP7T $PINS A1=n190 A2=n155 B1=n37 B2=n79 ZN=n185 
XU90 CKND2D0BWP7T $PINS A1=n141 A2=n51 ZN=n37 
XU91 OAI222D0BWP7T $PINS A1=n60 A2=n94 B1=n191 B2=n51 C1=n62 C2=n18 ZN=n184 
XU92 NR3D0BWP7T $PINS A1=n192 A2=n193 A3=n118 ZN=n182 
XU93 ND4D0BWP7T $PINS A1=n194 A2=n195 A3=n196 A4=n197 ZN=n118 
XU94 AOI221D0BWP7T $PINS A1=n96 A2=n168 B1=n57 B2=n198 C=n199 ZN=n197 
XU95 OAI22D0BWP7T $PINS A1=n10 A2=n127 B1=n200 B2=n62 ZN=n199 
XU96 CKND0BWP7T $PINS I=n19 ZN=n198 
XU97 OA22D0BWP7T $PINS A1=n12 A2=n44 B1=n14 B2=n201 Z=n196 
XU98 NR2D0BWP7T $PINS A1=n84 A2=n79 ZN=n44 
XU99 OAI21D0BWP7T $PINS A1=n48 A2=n170 B=n28 ZN=n195 
XU100 OAI21D0BWP7T $PINS A1=n55 A2=n144 B=n80 ZN=n194 
XU101 IINR4D0BWP7T $PINS A1=n202 A2=n203 B1=n204 B2=n205 ZN=n100 
XU102 NR4D0BWP7T $PINS A1=n206 A2=n207 A3=n208 A4=n209 ZN=n203 
XU103 AOI21D0BWP7T $PINS A1=n210 A2=n10 B=n74 ZN=n209 
XU104 AOI21D0BWP7T $PINS A1=n40 A2=n60 B=n22 ZN=n208 
XU105 AOI21D0BWP7T $PINS A1=n113 A2=n60 B=n141 ZN=n207 
XU106 AO221D0BWP7T $PINS A1=n211 A2=n83 B1=n129 B2=n56 C=n212 Z=n206 
XU107 AOI21D0BWP7T $PINS A1=n18 A2=n24 B=n140 ZN=n212 
XU108 AOI221D0BWP7T $PINS A1=n47 A2=n114 B1=n132 B2=n115 C=n117 ZN=n202 
XU109 ND4D0BWP7T $PINS A1=n213 A2=n214 A3=n215 A4=n216 ZN=n117 
XU110 OA221D0BWP7T $PINS A1=n127 A2=n217 B1=n13 B2=n190 C=n218 Z=n216 
XU111 AO21D0BWP7T $PINS A1=n210 A2=n12 B=n24 Z=n218 
XU112 NR2D0BWP7T $PINS A1=n78 A2=n115 ZN=n190 
XU113 OA222D0BWP7T $PINS A1=n126 A2=n40 B1=n20 B2=n189 C1=n14 C2=n141 Z=n215 
XU114 NR2D0BWP7T $PINS A1=n83 A2=n30 ZN=n189 
XU115 AOI222D0BWP7T $PINS A1=n81 A2=n114 B1=n56 B2=n144 C1=n131 C2=n80 ZN=n214 
XU116 AOI22D0BWP7T $PINS A1=n83 A2=n115 B1=n75 B2=n76 ZN=n213 
XU117 AOI22D0BWP7T $PINS A1=n131 A2=n114 B1=n29 B2=n76 ZN=n181 
XU118 ND3D0BWP7T $PINS A1=n219 A2=n220 A3=n221 ZN=d[1] 
XU119 NR4D0BWP7T $PINS A1=n222 A2=n223 A3=n224 A4=n225 ZN=n221 
XU120 AOI21D0BWP7T $PINS A1=n226 A2=n22 B=n24 ZN=n225 
XU121 AOI21D0BWP7T $PINS A1=n18 A2=n14 B=n13 ZN=n224 
XU122 OAI22D0BWP7T $PINS A1=n227 A2=n41 B1=n201 B2=n98 ZN=n223 
XU123 NR2D0BWP7T $PINS A1=n132 A2=n128 ZN=n201 
XU124 OAI222D0BWP7T $PINS A1=n53 A2=n45 B1=n228 B2=n141 C1=n10 C2=n52 ZN=n222 
XU125 AOI211D0BWP7T $PINS A1=n36 A2=n80 B=n229 C=n204 ZN=n220 
XU126 ND4D0BWP7T $PINS A1=n230 A2=n231 A3=n232 A4=n233 ZN=n204 
XU127 AOI211D0BWP7T $PINS A1=n170 A2=n234 B=n235 C=n236 ZN=n233 
XU128 AOI21D0BWP7T $PINS A1=n40 A2=n52 B=n59 ZN=n236 
XU129 IAO21D0BWP7T $PINS A1=n179 A2=n237 B=n9 ZN=n235 
XU130 CKND2D0BWP7T $PINS A1=n99 A2=n200 ZN=n234 
XU131 MAOI22D0BWP7T $PINS A1=n46 A2=n70 B1=n61 B2=n210 ZN=n232 
XU132 CKND2D0BWP7T $PINS A1=n60 A2=n18 ZN=n70 
XU133 AOI22D0BWP7T $PINS A1=n48 A2=n47 B1=n144 B2=n82 ZN=n231 
XU134 AOI22D0BWP7T $PINS A1=n81 A2=n143 B1=n76 B2=n114 ZN=n230 
XU135 OAI22D0BWP7T $PINS A1=n74 A2=n43 B1=n51 B2=n14 ZN=n229 
XU136 INR3D0BWP7T $PINS A1=n104 B1=n192 B2=n101 ZN=n219 
XU137 ND4D0BWP7T $PINS A1=n238 A2=n239 A3=n240 A4=n241 ZN=n101 
XU138 AOI211D0BWP7T $PINS A1=n78 A2=n242 B=n243 C=n244 ZN=n241 
XU139 AOI21D0BWP7T $PINS A1=n228 A2=n60 B=n126 ZN=n244 
XU140 AOI21D0BWP7T $PINS A1=n11 A2=n41 B=n140 ZN=n243 
XU141 CKND2D0BWP7T $PINS A1=n93 A2=n51 ZN=n242 
XU142 AOI22D0BWP7T $PINS A1=n80 A2=n167 B1=n77 B2=n28 ZN=n240 
XU143 AOI222D0BWP7T $PINS A1=n143 A2=n55 B1=n128 B2=n76 C1=n56 C2=n47 ZN=n239 
XU144 AOI22D0BWP7T $PINS A1=n237 A2=n114 B1=n83 B2=n131 ZN=n238 
XU145 ND4D0BWP7T $PINS A1=n245 A2=n246 A3=n247 A4=n248 ZN=n192 
XU146 AOI221D0BWP7T $PINS A1=n83 A2=n178 B1=n29 B2=n211 C=n249 ZN=n248 
XU147 AOI21D0BWP7T $PINS A1=n210 A2=n22 B=n95 ZN=n249 
XU148 CKND2D0BWP7T $PINS A1=n60 A2=n14 ZN=n211 
XU149 CKND2D0BWP7T $PINS A1=n11 A2=n52 ZN=n178 
XU150 AOI222D0BWP7T $PINS A1=n36 A2=n128 B1=n30 B2=n180 C1=n48 C2=n79 ZN=n247 
XU151 CKND0BWP7T $PINS I=n99 ZN=n180 
XU152 NR2D0BWP7T $PINS A1=n36 A2=n57 ZN=n99 
XU153 AOI222D0BWP7T $PINS A1=n80 A2=n49 B1=n28 B2=n54 C1=n170 C2=n55 ZN=n246 
XU154 AOI22D0BWP7T $PINS A1=n76 A2=n143 B1=n75 B2=n131 ZN=n245 
XU155 IINR4D0BWP7T $PINS A1=n250 A2=n251 B1=n193 B2=n102 ZN=n104 
XU156 ND3D0BWP7T $PINS A1=n252 A2=n253 A3=n254 ZN=n102 
XU157 NR4D0BWP7T $PINS A1=n255 A2=n256 A3=n257 A4=n258 ZN=n254 
XU158 AOI21D0BWP7T $PINS A1=n140 A2=n13 B=n74 ZN=n258 
XU159 AOI21D0BWP7T $PINS A1=n59 A2=n126 B=n18 ZN=n257 
XU160 AOI21D0BWP7T $PINS A1=n141 A2=n45 B=n41 ZN=n256 
XU161 OAI21D0BWP7T $PINS A1=n142 A2=n61 B=n259 ZN=n255 
XU162 IOA21D0BWP7T $PINS A1=n260 A2=n15 B=n46 ZN=n259 
XU163 NR2D0BWP7T $PINS A1=n76 A2=n47 ZN=n15 
XU164 AOI22D0BWP7T $PINS A1=n77 A2=n47 B1=n57 B2=n82 ZN=n253 
XU165 AOI22D0BWP7T $PINS A1=n84 A2=n75 B1=n144 B2=n114 ZN=n252 
XU166 ND4D0BWP7T $PINS A1=n261 A2=n262 A3=n263 A4=n264 ZN=n193 
XU167 AOI222D0BWP7T $PINS A1=n56 A2=n265 B1=n75 B2=n266 C1=n84 C2=n267 ZN=n264 
XU168 CKND2D0BWP7T $PINS A1=n21 A2=n95 ZN=n266 
XU169 AOI22D0BWP7T $PINS A1=n132 A2=n169 B1=n114 B2=n167 ZN=n263 
XU170 CKND2D0BWP7T $PINS A1=n61 A2=n52 ZN=n167 
XU171 AOI22D0BWP7T $PINS A1=n80 A2=n268 B1=n28 B2=n128 ZN=n262 
XU172 AOI22D0BWP7T $PINS A1=n48 A2=n57 B1=n46 B2=n81 ZN=n261 
XU173 NR4D0BWP7T $PINS A1=n269 A2=n270 A3=n271 A4=n272 ZN=n251 
XU174 AOI21D0BWP7T $PINS A1=n20 A2=n52 B=n62 ZN=n272 
XU175 AOI21D0BWP7T $PINS A1=n142 A2=n188 B=n18 ZN=n271 
XU176 NR2D0BWP7T $PINS A1=n170 A2=n77 ZN=n142 
XU177 AOI21D0BWP7T $PINS A1=n40 A2=n200 B=n140 ZN=n270 
XU178 OAI222D0BWP7T $PINS A1=n273 A2=n155 B1=n227 B2=n20 C1=n228 C2=n59 ZN=n269 
XU179 NR2D0BWP7T $PINS A1=n76 A2=n49 ZN=n228 
XU180 NR2D0BWP7T $PINS A1=n56 A2=n77 ZN=n227 
XU181 AOI221D0BWP7T $PINS A1=n131 A2=n82 B1=n83 B2=n31 C=n205 ZN=n250 
XU182 ND3D0BWP7T $PINS A1=n274 A2=n275 A3=n276 ZN=n205 
XU183 NR4D0BWP7T $PINS A1=n277 A2=n278 A3=n279 A4=n280 ZN=n276 
XU184 AOI21D0BWP7T $PINS A1=n45 A2=n13 B=n127 ZN=n280 
XU185 IAO21D0BWP7T $PINS A1=n175 A2=n128 B=n61 ZN=n279 
XU186 CKND2D0BWP7T $PINS A1=n140 A2=n62 ZN=n175 
XU187 AOI21D0BWP7T $PINS A1=n23 A2=n51 B=n200 ZN=n278 
XU188 AOI21D0BWP7T $PINS A1=n59 A2=n12 B=n20 ZN=n277 
XU189 MAOI22D0BWP7T $PINS A1=n77 A2=n129 B1=n16 B2=n113 ZN=n275 
XU190 NR2D0BWP7T $PINS A1=n84 A2=n131 ZN=n113 
XU191 CKND2D0BWP7T $PINS A1=n200 A2=n53 ZN=n129 
XU192 AOI22D0BWP7T $PINS A1=n48 A2=n81 B1=n54 B2=n144 ZN=n274 
XU193 ND4D0BWP7T $PINS A1=n281 A2=n282 A3=n283 A4=n284 ZN=d[0] 
XU194 AOI211D0BWP7T $PINS A1=n76 A2=n158 B=n285 C=n286 ZN=n284 
XU195 AOI31D0BWP7T $PINS A1=n60 A2=n24 A3=n191 B=n140 ZN=n286 
XU196 OAI22D0BWP7T $PINS A1=n287 A2=n127 B1=n226 B2=n200 ZN=n285 
XU197 NR2D0BWP7T $PINS A1=n46 A2=n75 ZN=n226 
XU198 CKND2D0BWP7T $PINS A1=n188 A2=n12 ZN=n158 
XU199 NR2D0BWP7T $PINS A1=n83 A2=n29 ZN=n188 
XU200 AOI222D0BWP7T $PINS A1=n29 A2=n81 B1=n48 B2=n55 C1=n30 C2=n84 ZN=n283 
XU201 AOI221D0BWP7T $PINS A1=n132 A2=n78 B1=n31 B2=n170 C=n25 ZN=n282 
XU202 ND3D0BWP7T $PINS A1=n288 A2=n289 A3=n290 ZN=n25 
XU203 NR4D0BWP7T $PINS A1=n291 A2=n292 A3=n293 A4=n294 ZN=n290 
XU204 AOI21D0BWP7T $PINS A1=n42 A2=n260 B=n13 ZN=n294 
XU205 NR2D0BWP7T $PINS A1=n55 A2=n79 ZN=n260 
XU206 AOI21D0BWP7T $PINS A1=n12 A2=n22 B=n74 ZN=n293 
XU207 AOI21D0BWP7T $PINS A1=n217 A2=n51 B=n200 ZN=n292 
XU208 NR2D0BWP7T $PINS A1=n54 A2=n132 ZN=n217 
XU209 OAI222D0BWP7T $PINS A1=n126 A2=n18 B1=n287 B2=n40 C1=n41 C2=n155 ZN=n291 
XU210 NR2D0BWP7T $PINS A1=n80 A2=n132 ZN=n287 
XU211 AOI222D0BWP7T $PINS A1=n36 A2=n54 B1=n56 B2=n31 C1=n29 C2=n131 ZN=n289 
XU212 NR3D0BWP7T $PINS A1=n63 A2=n146 A3=n159 ZN=n288 
XU213 ND4D0BWP7T $PINS A1=n295 A2=n296 A3=n297 A4=n298 ZN=n159 
XU214 AOI211D0BWP7T $PINS A1=n131 A2=n164 B=n299 C=n300 ZN=n298 
XU215 IAO21D0BWP7T $PINS A1=n301 A2=n75 B=n95 ZN=n300 
XU216 IAO21D0BWP7T $PINS A1=n164 A2=n143 B=n41 ZN=n299 
XU217 CKND2D0BWP7T $PINS A1=n141 A2=n59 ZN=n164 
XU218 MAOI22D0BWP7T $PINS A1=n128 A2=n76 B1=n62 B2=n156 ZN=n297 
XU219 NR2D0BWP7T $PINS A1=n131 A2=n28 ZN=n156 
XU220 AOI222D0BWP7T $PINS A1=n84 A2=n82 B1=n47 B2=n54 C1=n114 C2=n55 ZN=n296 
XU221 AOI22D0BWP7T $PINS A1=n143 A2=n115 B1=n57 B2=n132 ZN=n295 
XU222 CKND0BWP7T $PINS I=n13 ZN=n143 
XU223 OAI211D0BWP7T $PINS A1=n12 A2=n24 B=n302 C=n303 ZN=n146 
XU224 NR4D0BWP7T $PINS A1=n304 A2=n305 A3=n306 A4=n307 ZN=n303 
XU225 AOI21D0BWP7T $PINS A1=n95 A2=n14 B=n43 ZN=n307 
XU226 AOI21D0BWP7T $PINS A1=n308 A2=n41 B=n10 ZN=n306 
XU227 AOI21D0BWP7T $PINS A1=n127 A2=n14 B=n126 ZN=n305 
XU228 AOI21D0BWP7T $PINS A1=n19 A2=n140 B=n53 ZN=n304 
XU229 AOI22D0BWP7T $PINS A1=n144 A2=n267 B1=n55 B2=n111 ZN=n302 
XU230 CKND0BWP7T $PINS I=n20 ZN=n55 
XU231 CKND2D0BWP7T $PINS A1=n155 A2=n94 ZN=n267 
XU232 ND4D0BWP7T $PINS A1=n309 A2=n310 A3=n311 A4=n312 ZN=n63 
XU233 AOI211D0BWP7T $PINS A1=n114 A2=n265 B=n313 C=n314 ZN=n312 
XU234 AOI21D0BWP7T $PINS A1=n210 A2=n126 B=n200 ZN=n314 
XU235 NR2D0BWP7T $PINS A1=n29 A2=n56 ZN=n210 
XU236 AOI21D0BWP7T $PINS A1=n10 A2=n155 B=n20 ZN=n313 
XU237 CKND2D0BWP7T $PINS A1=n127 A2=n18 ZN=n265 
XU238 MAOI22D0BWP7T $PINS A1=n78 A2=n168 B1=n13 B2=n273 ZN=n311 
XU239 NR2D0BWP7T $PINS A1=n76 A2=n131 ZN=n273 
XU240 CKND2D0BWP7T $PINS A1=n315 A2=n316 ZN=n13 
XU241 CKND2D0BWP7T $PINS A1=n12 A2=n155 ZN=n168 
XU242 AOI22D0BWP7T $PINS A1=n82 A2=n169 B1=n49 B2=n132 ZN=n310 
XU243 CKND2D0BWP7T $PINS A1=n95 A2=n60 ZN=n169 
XU244 AOI22D0BWP7T $PINS A1=n80 A2=n144 B1=n76 B2=n170 ZN=n309 
XU245 CKND0BWP7T $PINS I=n60 ZN=n144 
XU246 NR3D0BWP7T $PINS A1=n147 A2=n148 A3=n65 ZN=n281 
XU247 ND4D0BWP7T $PINS A1=n317 A2=n318 A3=n319 A4=n320 ZN=n65 
XU248 AOI211D0BWP7T $PINS A1=n83 A2=n321 B=n322 C=n323 ZN=n320 
XU249 AOI21D0BWP7T $PINS A1=n60 A2=n200 B=n22 ZN=n323 
XU250 AOI31D0BWP7T $PINS A1=n140 A2=n16 A3=n51 B=n61 ZN=n322 
XU251 CKND2D0BWP7T $PINS A1=n21 A2=n41 ZN=n321 
XU252 NR2D0BWP7T $PINS A1=n36 A2=n79 ZN=n21 
XU253 CKND0BWP7T $PINS I=n43 ZN=n83 
XU254 CKND2D0BWP7T $PINS A1=n324 A2=n325 ZN=n43 
XU255 AOI22D0BWP7T $PINS A1=n82 A2=n123 B1=n75 B2=n268 ZN=n319 
XU256 CKND0BWP7T $PINS I=n191 ZN=n268 
XU257 NR2D0BWP7T $PINS A1=n76 A2=n84 ZN=n191 
XU258 CKND0BWP7T $PINS I=n11 ZN=n76 
XU259 CKND2D0BWP7T $PINS A1=n326 A2=n327 ZN=n11 
XU260 CKND2D0BWP7T $PINS A1=n98 A2=n20 ZN=n123 
XU261 CKND2D0BWP7T $PINS A1=n327 A2=n328 ZN=n20 
XU262 AOI22D0BWP7T $PINS A1=n77 A2=n81 B1=n29 B2=n47 ZN=n318 
XU263 AOI22D0BWP7T $PINS A1=n36 A2=n56 B1=n31 B2=n114 ZN=n317 
XU264 CKND0BWP7T $PINS I=n12 ZN=n114 
XU265 CKND0BWP7T $PINS I=n95 ZN=n31 
XU266 CKND0BWP7T $PINS I=n127 ZN=n36 
XU267 ND4D0BWP7T $PINS A1=n329 A2=n330 A3=n331 A4=n332 ZN=n148 
XU268 AOI211D0BWP7T $PINS A1=n81 A2=n301 B=n333 C=n334 ZN=n332 
XU269 AOI21D0BWP7T $PINS A1=n12 A2=n94 B=n40 ZN=n334 
XU270 CKND2D0BWP7T $PINS A1=n316 A2=n335 ZN=n12 
XU271 AOI21D0BWP7T $PINS A1=n60 A2=n61 B=n141 ZN=n333 
XU272 CKND2D0BWP7T $PINS A1=n336 A2=n327 ZN=n60 
XU273 CKND2D0BWP7T $PINS A1=n9 A2=n126 ZN=n301 
XU274 CKND0BWP7T $PINS I=n41 ZN=n81 
XU275 CKND2D0BWP7T $PINS A1=n337 A2=n328 ZN=n41 
XU276 MAOI22D0BWP7T $PINS A1=n47 A2=n111 B1=n61 B2=n23 ZN=n331 
XU277 NR2D0BWP7T $PINS A1=n80 A2=n29 ZN=n23 
XU278 CKND0BWP7T $PINS I=n45 ZN=n29 
XU279 CKND2D0BWP7T $PINS A1=n338 A2=n339 ZN=n45 
XU280 CKND2D0BWP7T $PINS A1=n9 A2=n141 ZN=n111 
XU281 CKND0BWP7T $PINS I=n14 ZN=n47 
XU282 CKND2D0BWP7T $PINS A1=n340 A2=n326 ZN=n14 
XU283 AOI222D0BWP7T $PINS A1=n28 A2=n54 B1=n77 B2=n96 C1=n57 C2=n128 ZN=n330 
XU284 CKND0BWP7T $PINS I=n24 ZN=n57 
XU285 CKND2D0BWP7T $PINS A1=n95 A2=n74 ZN=n96 
XU286 CKND2D0BWP7T $PINS A1=n341 A2=n337 ZN=n95 
XU287 CKND0BWP7T $PINS I=n140 ZN=n54 
XU288 CKND2D0BWP7T $PINS A1=n315 A2=n338 ZN=n140 
XU289 AOI22D0BWP7T $PINS A1=n75 A2=n49 B1=n30 B2=n131 ZN=n329 
XU290 CKND0BWP7T $PINS I=n98 ZN=n131 
XU291 CKND0BWP7T $PINS I=n155 ZN=n30 
XU292 CKND2D0BWP7T $PINS A1=n339 A2=n342 ZN=n155 
XU293 CKND0BWP7T $PINS I=n74 ZN=n49 
XU294 CKND2D0BWP7T $PINS A1=n336 A2=n337 ZN=n74 
XU295 CKND0BWP7T $PINS I=n62 ZN=n75 
XU296 CKND2D0BWP7T $PINS A1=n335 A2=n342 ZN=n62 
XU297 ND4D0BWP7T $PINS A1=n343 A2=n344 A3=n345 A4=n346 ZN=n147 
XU298 AOI221D0BWP7T $PINS A1=n80 A2=n115 B1=n84 B2=n130 C=n347 ZN=n346 
XU299 AOI21D0BWP7T $PINS A1=n42 A2=n127 B=n10 ZN=n347 
XU300 CKND2D0BWP7T $PINS A1=n341 A2=n340 ZN=n127 
XU301 NR2D0BWP7T $PINS A1=n237 A2=n28 ZN=n42 
XU302 CKND0BWP7T $PINS I=n52 ZN=n28 
XU303 CKND2D0BWP7T $PINS A1=n336 A2=n340 ZN=n52 
XU304 CKND0BWP7T $PINS I=n93 ZN=n130 
XU305 NR2D0BWP7T $PINS A1=n46 A2=n48 ZN=n93 
XU306 CKND0BWP7T $PINS I=n10 ZN=n46 
XU307 CKND2D0BWP7T $PINS A1=n338 A2=n335 ZN=n10 
XU308 CKND0BWP7T $PINS I=n40 ZN=n84 
XU309 CKND2D0BWP7T $PINS A1=n336 A2=n348 ZN=n40 
XU310 NR2D0BWP7T $PINS A1=n349 A2=a[6] ZN=n336 
XU311 CKND0BWP7T $PINS I=n200 ZN=n115 
XU312 CKND2D0BWP7T $PINS A1=n326 A2=n337 ZN=n200 
XU313 NR2D0BWP7T $PINS A1=n350 A2=a[4] ZN=n337 
XU314 CKND0BWP7T $PINS I=n9 ZN=n80 
XU315 CKND2D0BWP7T $PINS A1=n316 A2=n339 ZN=n9 
XU316 IOA21D0BWP7T $PINS A1=n19 A2=n112 B=n237 ZN=n345 
XU317 CKND0BWP7T $PINS I=n18 ZN=n237 
XU318 CKND2D0BWP7T $PINS A1=n348 A2=n328 ZN=n18 
XU319 NR2D0BWP7T $PINS A1=n82 A2=n128 ZN=n112 
XU320 CKND0BWP7T $PINS I=n22 ZN=n128 
XU321 CKND2D0BWP7T $PINS A1=n324 A2=n335 ZN=n22 
XU322 NR2D0BWP7T $PINS A1=n351 A2=n352 ZN=n335 
XU323 CKND0BWP7T $PINS I=n51 ZN=n82 
XU324 CKND2D0BWP7T $PINS A1=n324 A2=n315 ZN=n51 
XU325 NR2D0BWP7T $PINS A1=n132 A2=n77 ZN=n19 
XU326 CKND0BWP7T $PINS I=n94 ZN=n77 
XU327 CKND2D0BWP7T $PINS A1=n324 A2=n339 ZN=n94 
XU328 NR2D0BWP7T $PINS A1=n352 A2=a[3] ZN=n339 
XU329 CKND0BWP7T $PINS I=a[2] ZN=n352 
XU330 NR2D0BWP7T $PINS A1=a[1] A2=a[0] ZN=n324 
XU331 CKND0BWP7T $PINS I=n59 ZN=n132 
XU332 CKND2D0BWP7T $PINS A1=n316 A2=n325 ZN=n59 
XU333 NR2D0BWP7T $PINS A1=n353 A2=a[1] ZN=n316 
XU334 OAI21D0BWP7T $PINS A1=n56 A2=n170 B=n79 ZN=n344 
XU335 CKND0BWP7T $PINS I=n53 ZN=n79 
XU336 CKND0BWP7T $PINS I=n141 ZN=n170 
XU337 CKND2D0BWP7T $PINS A1=n315 A2=n342 ZN=n141 
XU338 NR2D0BWP7T $PINS A1=a[3] A2=a[2] ZN=n315 
XU339 CKND0BWP7T $PINS I=n16 ZN=n56 
XU340 CKND2D0BWP7T $PINS A1=n325 A2=n338 ZN=n16 
XU341 NR2D0BWP7T $PINS A1=n354 A2=a[0] ZN=n338 
XU342 IOA21D0BWP7T $PINS A1=n98 A2=n308 B=n48 ZN=n343 
XU343 CKND0BWP7T $PINS I=n126 ZN=n48 
XU344 CKND2D0BWP7T $PINS A1=n325 A2=n342 ZN=n126 
XU345 NR2D0BWP7T $PINS A1=n354 A2=n353 ZN=n342 
XU346 CKND0BWP7T $PINS I=a[0] ZN=n353 
XU347 CKND0BWP7T $PINS I=a[1] ZN=n354 
XU348 NR2D0BWP7T $PINS A1=n351 A2=a[2] ZN=n325 
XU349 CKND0BWP7T $PINS I=a[3] ZN=n351 
XU350 NR2D0BWP7T $PINS A1=n179 A2=n78 ZN=n308 
XU351 CKND0BWP7T $PINS I=n61 ZN=n78 
XU352 CKND2D0BWP7T $PINS A1=n348 A2=n326 ZN=n61 
XU353 NR2D0BWP7T $PINS A1=a[7] A2=a[6] ZN=n326 
XU354 CKND2D0BWP7T $PINS A1=n24 A2=n53 ZN=n179 
XU355 CKND2D0BWP7T $PINS A1=n341 A2=n327 ZN=n53 
XU356 NR2D0BWP7T $PINS A1=n350 A2=n355 ZN=n327 
XU357 CKND0BWP7T $PINS I=a[5] ZN=n350 
XU358 CKND2D0BWP7T $PINS A1=n341 A2=n348 ZN=n24 
XU359 NR2D0BWP7T $PINS A1=a[5] A2=a[4] ZN=n348 
XU360 NR2D0BWP7T $PINS A1=n349 A2=n356 ZN=n341 
XU361 CKND0BWP7T $PINS I=a[7] ZN=n349 
XU362 CKND2D0BWP7T $PINS A1=n340 A2=n328 ZN=n98 
XU363 NR2D0BWP7T $PINS A1=n356 A2=a[7] ZN=n328 
XU364 CKND0BWP7T $PINS I=a[6] ZN=n356 
XU365 NR2D0BWP7T $PINS A1=n355 A2=a[5] ZN=n340 
XU366 CKND0BWP7T $PINS I=a[4] ZN=n355 
.ENDS

.SUBCKT aes_sbox_2 a[7] a[6] a[5] a[4] a[3] a[2] a[1] a[0] d[7] d[6] d[5] d[4] 
+ d[3] d[2] d[1] d[0] 
XU3 IND4D0BWP7T $PINS A1=n1 B1=n2 B2=n3 B3=n4 ZN=d[7] 
XU4 NR4D0BWP7T $PINS A1=n5 A2=n6 A3=n7 A4=n8 ZN=n4 
XU5 AOI21D0BWP7T $PINS A1=n9 A2=n10 B=n11 ZN=n8 
XU6 AOI21D0BWP7T $PINS A1=n12 A2=n13 B=n14 ZN=n7 
XU7 OAI22D0BWP7T $PINS A1=n15 A2=n16 B1=n17 B2=n18 ZN=n6 
XU8 OAI222D0BWP7T $PINS A1=n19 A2=n20 B1=n21 B2=n22 C1=n23 C2=n24 ZN=n5 
XU9 NR3D0BWP7T $PINS A1=n25 A2=n26 A3=n27 ZN=n3 
XU10 AOI22D0BWP7T $PINS A1=n28 A2=n29 B1=n30 B2=n31 ZN=n2 
XU11 ND4D0BWP7T $PINS A1=n32 A2=n33 A3=n34 A4=n35 ZN=d[6] 
XU12 AOI211D0BWP7T $PINS A1=n36 A2=n37 B=n38 C=n39 ZN=n35 
XU13 AOI21D0BWP7T $PINS A1=n40 A2=n41 B=n22 ZN=n39 
XU14 OAI22D0BWP7T $PINS A1=n42 A2=n43 B1=n44 B2=n45 ZN=n38 
XU15 AOI221D0BWP7T $PINS A1=n46 A2=n47 B1=n48 B2=n49 C=n50 ZN=n34 
XU16 OAI22D0BWP7T $PINS A1=n51 A2=n52 B1=n12 B2=n53 ZN=n50 
XU17 AOI221D0BWP7T $PINS A1=n54 A2=n55 B1=n56 B2=n57 C=n58 ZN=n33 
XU18 OAI22D0BWP7T $PINS A1=n59 A2=n60 B1=n61 B2=n62 ZN=n58 
XU19 NR4D0BWP7T $PINS A1=n63 A2=n1 A3=n64 A4=n65 ZN=n32 
XU20 ND4D0BWP7T $PINS A1=n66 A2=n67 A3=n68 A4=n69 ZN=n1 
XU21 AOI211D0BWP7T $PINS A1=n56 A2=n70 B=n71 C=n72 ZN=n69 
XU22 AOI21D0BWP7T $PINS A1=n73 A2=n51 B=n74 ZN=n72 
XU23 AOI21D0BWP7T $PINS A1=n17 A2=n59 B=n14 ZN=n71 
XU24 NR2D0BWP7T $PINS A1=n75 A2=n30 ZN=n17 
XU25 AOI222D0BWP7T $PINS A1=n48 A2=n76 B1=n77 B2=n78 C1=n79 C2=n80 ZN=n68 
XU26 AOI222D0BWP7T $PINS A1=n30 A2=n57 B1=n75 B2=n55 C1=n81 C2=n82 ZN=n67 
XU27 AOI22D0BWP7T $PINS A1=n83 A2=n84 B1=n36 B2=n29 ZN=n66 
XU28 IND4D0BWP7T $PINS A1=n85 B1=n86 B2=n87 B3=n88 ZN=d[5] 
XU29 NR4D0BWP7T $PINS A1=n89 A2=n90 A3=n91 A4=n92 ZN=n88 
XU30 AOI21D0BWP7T $PINS A1=n93 A2=n94 B=n95 ZN=n92 
XU31 IAO21D0BWP7T $PINS A1=n96 A2=n28 B=n51 ZN=n91 
XU32 MOAI22D0BWP7T $PINS A1=n97 A2=n53 B1=n70 B2=n30 ZN=n90 
XU33 OAI222D0BWP7T $PINS A1=n98 A2=n94 B1=n99 B2=n43 C1=n22 C2=n18 ZN=n89 
XU34 INR3D0BWP7T $PINS A1=n100 B1=n101 B2=n102 ZN=n87 
XU35 AOI22D0BWP7T $PINS A1=n48 A2=n55 B1=n75 B2=n81 ZN=n86 
XU36 ND4D0BWP7T $PINS A1=n103 A2=n104 A3=n105 A4=n106 ZN=d[4] 
XU37 NR4D0BWP7T $PINS A1=n107 A2=n108 A3=n109 A4=n110 ZN=n106 
XU38 IAO21D0BWP7T $PINS A1=n111 A2=n54 B=n95 ZN=n110 
XU39 AOI21D0BWP7T $PINS A1=n41 A2=n20 B=n112 ZN=n109 
XU40 OAI22D0BWP7T $PINS A1=n11 A2=n94 B1=n113 B2=n10 ZN=n108 
XU41 OAI222D0BWP7T $PINS A1=n74 A2=n22 B1=n59 B2=n53 C1=n45 C2=n52 ZN=n107 
XU42 AOI211D0BWP7T $PINS A1=n114 A2=n115 B=n116 C=n117 ZN=n105 
XU43 OAI22D0BWP7T $PINS A1=n13 A2=n98 B1=n9 B2=n14 ZN=n116 
XU44 NR2D0BWP7T $PINS A1=n85 A2=n118 ZN=n103 
XU45 ND4D0BWP7T $PINS A1=n119 A2=n120 A3=n121 A4=n122 ZN=n85 
XU46 AOI211D0BWP7T $PINS A1=n29 A2=n123 B=n124 C=n125 ZN=n122 
XU47 AOI21D0BWP7T $PINS A1=n51 A2=n126 B=n127 ZN=n125 
XU48 AOI21D0BWP7T $PINS A1=n24 A2=n95 B=n13 ZN=n124 
XU49 AOI222D0BWP7T $PINS A1=n28 A2=n56 B1=n128 B2=n129 C1=n115 C2=n130 ZN=n121 
XU50 AOI222D0BWP7T $PINS A1=n75 A2=n49 B1=n30 B2=n47 C1=n48 C2=n131 ZN=n120 
XU51 AOI22D0BWP7T $PINS A1=n81 A2=n132 B1=n83 B2=n78 ZN=n119 
XU52 ND3D0BWP7T $PINS A1=n133 A2=n134 A3=n135 ZN=d[3] 
XU53 NR4D0BWP7T $PINS A1=n136 A2=n137 A3=n138 A4=n139 ZN=n135 
XU54 AOI21D0BWP7T $PINS A1=n59 A2=n10 B=n95 ZN=n139 
XU55 AOI22D0BWP7T $PINS A1=n74 A2=n18 B1=n140 B2=n141 ZN=n138 
XU56 OAI22D0BWP7T $PINS A1=n142 A2=n24 B1=n97 B2=n127 ZN=n137 
XU57 NR2D0BWP7T $PINS A1=n30 A2=n143 ZN=n97 
XU58 OAI222D0BWP7T $PINS A1=n9 A2=n52 B1=n11 B2=n94 C1=n20 C2=n45 ZN=n136 
XU59 AOI211D0BWP7T $PINS A1=n75 A2=n144 B=n145 C=n146 ZN=n134 
XU60 OAI22D0BWP7T $PINS A1=n12 A2=n41 B1=n13 B2=n40 ZN=n145 
XU61 NR3D0BWP7T $PINS A1=n147 A2=n27 A3=n64 ZN=n133 
XU62 IIND4D0BWP7T $PINS A1=n148 A2=n26 B1=n149 B2=n150 ZN=n64 
XU63 NR4D0BWP7T $PINS A1=n151 A2=n152 A3=n153 A4=n154 ZN=n150 
XU64 AOI21D0BWP7T $PINS A1=n74 A2=n53 B=n155 ZN=n154 
XU65 AOI21D0BWP7T $PINS A1=n24 A2=n61 B=n13 ZN=n153 
XU66 AOI21D0BWP7T $PINS A1=n73 A2=n22 B=n98 ZN=n152 
XU67 NR2D0BWP7T $PINS A1=n83 A2=n46 ZN=n73 
XU68 OAI222D0BWP7T $PINS A1=n156 A2=n12 B1=n157 B2=n60 C1=n23 C2=n18 ZN=n151 
XU69 CKND0BWP7T $PINS I=n158 ZN=n157 
XU70 AOI221D0BWP7T $PINS A1=n77 A2=n36 B1=n56 B2=n84 C=n159 ZN=n149 
XU71 ND4D0BWP7T $PINS A1=n160 A2=n161 A3=n162 A4=n163 ZN=n26 
XU72 AOI211D0BWP7T $PINS A1=n28 A2=n164 B=n165 C=n166 ZN=n163 
XU73 AOI21D0BWP7T $PINS A1=n51 A2=n94 B=n14 ZN=n166 
XU74 IAO21D0BWP7T $PINS A1=n167 A2=n31 B=n22 ZN=n165 
XU75 AOI22D0BWP7T $PINS A1=n115 A2=n168 B1=n143 B2=n169 ZN=n162 
XU76 AOI222D0BWP7T $PINS A1=n131 A2=n80 B1=n48 B2=n144 C1=n56 C2=n55 ZN=n161 
XU77 AOI22D0BWP7T $PINS A1=n83 A2=n57 B1=n84 B2=n170 ZN=n160 
XU78 ND4D0BWP7T $PINS A1=n171 A2=n172 A3=n173 A4=n174 ZN=n27 
XU79 AOI211D0BWP7T $PINS A1=n81 A2=n175 B=n176 C=n177 ZN=n174 
XU80 AOI21D0BWP7T $PINS A1=n140 A2=n45 B=n95 ZN=n177 
XU81 AOI21D0BWP7T $PINS A1=n156 A2=n74 B=n16 ZN=n176 
XU82 AOI22D0BWP7T $PINS A1=n30 A2=n178 B1=n82 B2=n179 ZN=n173 
XU83 AOI22D0BWP7T $PINS A1=n75 A2=n180 B1=n47 B2=n128 ZN=n172 
XU84 AOI22D0BWP7T $PINS A1=n83 A2=n55 B1=n46 B2=n144 ZN=n171 
XU85 ND4D0BWP7T $PINS A1=n181 A2=n100 A3=n182 A4=n183 ZN=d[2] 
XU86 NR4D0BWP7T $PINS A1=n184 A2=n185 A3=n186 A4=n187 ZN=n183 
XU87 AOI21D0BWP7T $PINS A1=n188 A2=n13 B=n40 ZN=n187 
XU88 AOI21D0BWP7T $PINS A1=n189 A2=n9 B=n41 ZN=n186 
XU89 MOAI22D0BWP7T $PINS A1=n190 A2=n155 B1=n37 B2=n79 ZN=n185 
XU90 CKND2D0BWP7T $PINS A1=n141 A2=n51 ZN=n37 
XU91 OAI222D0BWP7T $PINS A1=n60 A2=n94 B1=n191 B2=n51 C1=n62 C2=n18 ZN=n184 
XU92 NR3D0BWP7T $PINS A1=n192 A2=n193 A3=n118 ZN=n182 
XU93 ND4D0BWP7T $PINS A1=n194 A2=n195 A3=n196 A4=n197 ZN=n118 
XU94 AOI221D0BWP7T $PINS A1=n96 A2=n168 B1=n57 B2=n198 C=n199 ZN=n197 
XU95 OAI22D0BWP7T $PINS A1=n10 A2=n127 B1=n200 B2=n62 ZN=n199 
XU96 CKND0BWP7T $PINS I=n19 ZN=n198 
XU97 OA22D0BWP7T $PINS A1=n12 A2=n44 B1=n14 B2=n201 Z=n196 
XU98 NR2D0BWP7T $PINS A1=n84 A2=n79 ZN=n44 
XU99 OAI21D0BWP7T $PINS A1=n48 A2=n170 B=n28 ZN=n195 
XU100 OAI21D0BWP7T $PINS A1=n55 A2=n144 B=n80 ZN=n194 
XU101 IINR4D0BWP7T $PINS A1=n202 A2=n203 B1=n204 B2=n205 ZN=n100 
XU102 NR4D0BWP7T $PINS A1=n206 A2=n207 A3=n208 A4=n209 ZN=n203 
XU103 AOI21D0BWP7T $PINS A1=n210 A2=n10 B=n74 ZN=n209 
XU104 AOI21D0BWP7T $PINS A1=n40 A2=n60 B=n22 ZN=n208 
XU105 AOI21D0BWP7T $PINS A1=n113 A2=n60 B=n141 ZN=n207 
XU106 AO221D0BWP7T $PINS A1=n211 A2=n83 B1=n129 B2=n56 C=n212 Z=n206 
XU107 AOI21D0BWP7T $PINS A1=n18 A2=n24 B=n140 ZN=n212 
XU108 AOI221D0BWP7T $PINS A1=n47 A2=n114 B1=n132 B2=n115 C=n117 ZN=n202 
XU109 ND4D0BWP7T $PINS A1=n213 A2=n214 A3=n215 A4=n216 ZN=n117 
XU110 OA221D0BWP7T $PINS A1=n127 A2=n217 B1=n13 B2=n190 C=n218 Z=n216 