************************************************************************************
* TSMC Library/IP Product
* Filename: tcb018gbwp7t_270a.spi
* Technology: CL018
* Product Type: Standard Cell
* Product Name: tcb018gbwp7t
* Version: 270a
*************************************************************************************
**
*  STATEMENT OF USE
*
*  This information contains confidential and proprietary information of TSMC.
*  No part of this information may be reproduced, transmitted, transcribed,
*  stored in a retrieval system, or translated into any human or computer
*  language, in any form or by any means, electronic, mechanical, magnetic,
*  optical, chemical, manual, or otherwise, without the prior written permission
*  of TSMC.  This information was prepared for informational purpose and is for
*  use by TSMC's customers only.  TSMC reserves the right to make changes in the
*  information at any time and without notice.
*
**************************************************************************************
.global VDD VSS
.subckt AN2D0BWP7T A1 A2 Z VDD VSS 
M_u3-M_u2 Z net6 VSS VSS n w=0.5u l=0.18u
M_u2-M_u4 X_u2-net6 A2 VSS VSS n w=0.5u l=0.18u
M_u2-M_u3 net6 A1 X_u2-net6 VSS n w=0.5u l=0.18u
M_u3-M_u3 Z net6 VDD VDD p w=0.685u l=0.18u
M_u2-M_u2 net6 A2 VDD VDD p w=0.685u l=0.18u
M_u2-M_u1 net6 A1 VDD VDD p w=0.685u l=0.18u
.ends
.subckt AN2D1BWP7T A1 A2 Z VDD VSS 
M_u3-M_u2 Z net6 VSS VSS n w=1u l=0.18u
M_u2-M_u4 X_u2-net6 A2 VSS VSS n w=0.5u l=0.18u
M_u2-M_u3 net6 A1 X_u2-net6 VSS n w=0.5u l=0.18u
M_u3-M_u3 Z net6 VDD VDD p w=1.37u l=0.18u
M_u2-M_u2 net6 A2 VDD VDD p w=0.685u l=0.18u
M_u2-M_u1 net6 A1 VDD VDD p w=0.685u l=0.18u
.ends
.subckt AN2D2BWP7T A1 A2 Z VDD VSS 
M_u3-M_u2 Z net10 VSS VSS n w=2u l=0.18u
M_u2-M_u4 X_u2-net6 A2 VSS VSS n w=1u l=0.18u
M_u2-M_u3 net10 A1 X_u2-net6 VSS n w=1u l=0.18u
M_u3-M_u3 Z net10 VDD VDD p w=2.74u l=0.18u
M_u2-M_u2 net10 A2 VDD VDD p w=1.37u l=0.18u
M_u2-M_u1 net10 A1 VDD VDD p w=1.37u l=0.18u
.ends
.subckt AN2D4BWP7T A1 A2 Z VDD VSS 
M_u3_0-M_u2 Z p0 VSS VSS n w=1u l=0.18u
M_u3_1-M_u2 Z p0 VSS VSS n w=1u l=0.18u
M_u3_2-M_u2 Z p0 VSS VSS n w=1u l=0.18u
M_u3_3-M_u2 Z p0 VSS VSS n w=1u l=0.18u
M_u2_0-M_u4 X_u2_0-net6 A2 VSS VSS n w=1u l=0.18u
M_u2_0-M_u3 p0 A1 X_u2_0-net6 VSS n w=1u l=0.18u
M_u2_1-M_u4 X_u2_1-net6 A2 VSS VSS n w=1u l=0.18u
M_u2_1-M_u3 p0 A1 X_u2_1-net6 VSS n w=1u l=0.18u
M_u3_0-M_u3 Z p0 VDD VDD p w=1.37u l=0.18u
M_u3_1-M_u3 Z p0 VDD VDD p w=1.37u l=0.18u
M_u3_2-M_u3 Z p0 VDD VDD p w=1.37u l=0.18u
M_u3_3-M_u3 Z p0 VDD VDD p w=1.37u l=0.18u
M_u2_0-M_u2 p0 A2 VDD VDD p w=1.37u l=0.18u
M_u2_0-M_u1 p0 A1 VDD VDD p w=1.37u l=0.18u
M_u2_1-M_u2 p0 A2 VDD VDD p w=1.37u l=0.18u
M_u2_1-M_u1 p0 A1 VDD VDD p w=1.37u l=0.18u
.ends
.subckt AN2XD1BWP7T A1 A2 Z VDD VSS 
M_u3-M_u2 Z net6 VSS VSS n w=1u l=0.18u
M_u2-M_u4 X_u2-net6 A2 VSS VSS n w=1u l=0.18u
M_u2-M_u3 net6 A1 X_u2-net6 VSS n w=1u l=0.18u
M_u3-M_u3 Z net6 VDD VDD p w=1.37u l=0.18u
M_u2-M_u2 net6 A2 VDD VDD p w=1.37u l=0.18u
M_u2-M_u1 net6 A1 VDD VDD p w=1.37u l=0.18u
.ends
.subckt AN3D0BWP7T A1 A2 A3 Z VDD VSS 
M_u4-M_u4 net7 A1 X_u4-net10 VSS n w=0.5u l=0.18u
M_u4-M_u5 X_u4-net10 A2 X_u4-net13 VSS n w=0.5u l=0.18u
M_u4-M_u6 X_u4-net13 A3 VSS VSS n w=0.5u l=0.18u
M_u3-M_u2 Z net7 VSS VSS n w=0.5u l=0.18u
M_u4-M_u3 net7 A3 VDD VDD p w=0.685u l=0.18u
M_u4-M_u1 net7 A1 VDD VDD p w=0.685u l=0.18u
M_u4-M_u2 net7 A2 VDD VDD p w=0.685u l=0.18u
M_u3-M_u3 Z net7 VDD VDD p w=0.685u l=0.18u
.ends
.subckt AN3D1BWP7T A1 A2 A3 Z VDD VSS 
M_u4-M_u4 net7 A1 X_u4-net10 VSS n w=0.5u l=0.18u
M_u4-M_u5 X_u4-net10 A2 X_u4-net13 VSS n w=0.5u l=0.18u
M_u4-M_u6 X_u4-net13 A3 VSS VSS n w=0.5u l=0.18u
M_u3-M_u2 Z net7 VSS VSS n w=1u l=0.18u
M_u4-M_u3 net7 A3 VDD VDD p w=0.685u l=0.18u
M_u4-M_u1 net7 A1 VDD VDD p w=0.685u l=0.18u
M_u4-M_u2 net7 A2 VDD VDD p w=0.685u l=0.18u
M_u3-M_u3 Z net7 VDD VDD p w=1.37u l=0.18u
.ends
.subckt AN3D2BWP7T A1 A2 A3 Z VDD VSS 
M_u4-M_u4 net15 A1 X_u4-net10 VSS n w=1u l=0.18u
M_u4-M_u5 X_u4-net10 A2 X_u4-net13 VSS n w=1u l=0.18u
M_u4-M_u6 X_u4-net13 A3 VSS VSS n w=1u l=0.18u
M_u3_0-M_u2 Z net15 VSS VSS n w=1u l=0.18u
M_u3_1-M_u2 Z net15 VSS VSS n w=1u l=0.18u
M_u4-M_u3 net15 A3 VDD VDD p w=1.37u l=0.18u
M_u4-M_u1 net15 A1 VDD VDD p w=1.37u l=0.18u
M_u4-M_u2 net15 A2 VDD VDD p w=1.37u l=0.18u
M_u3_0-M_u3 Z net15 VDD VDD p w=1.37u l=0.18u
M_u3_1-M_u3 Z net15 VDD VDD p w=1.37u l=0.18u
.ends
.subckt AN3D4BWP7T A1 A2 A3 Z VDD VSS 
M_u4_0-M_u4 p0 A1 X_u4_0-net10 VSS n w=1u l=0.18u
M_u4_0-M_u5 X_u4_0-net10 A2 X_u4_0-net13 VSS n w=1u l=0.18u
M_u4_0-M_u6 X_u4_0-net13 A3 VSS VSS n w=1u l=0.18u
M_u4_1-M_u4 p0 A1 X_u4_1-net10 VSS n w=1u l=0.18u
M_u4_1-M_u5 X_u4_1-net10 A2 X_u4_1-net13 VSS n w=1u l=0.18u
M_u4_1-M_u6 X_u4_1-net13 A3 VSS VSS n w=1u l=0.18u
M_u3_0-M_u2 Z p0 VSS VSS n w=1u l=0.18u
M_u3_1-M_u2 Z p0 VSS VSS n w=1u l=0.18u
M_u3_2-M_u2 Z p0 VSS VSS n w=1u l=0.18u
M_u3_3-M_u2 Z p0 VSS VSS n w=1u l=0.18u
M_u4_0-M_u3 p0 A3 VDD VDD p w=1.37u l=0.18u
M_u4_0-M_u1 p0 A1 VDD VDD p w=1.37u l=0.18u
M_u4_0-M_u2 p0 A2 VDD VDD p w=1.37u l=0.18u
M_u4_1-M_u3 p0 A3 VDD VDD p w=1.37u l=0.18u
M_u4_1-M_u1 p0 A1 VDD VDD p w=1.37u l=0.18u
M_u4_1-M_u2 p0 A2 VDD VDD p w=1.37u l=0.18u
M_u3_0-M_u3 Z p0 VDD VDD p w=1.37u l=0.18u
M_u3_1-M_u3 Z p0 VDD VDD p w=1.37u l=0.18u
M_u3_2-M_u3 Z p0 VDD VDD p w=1.37u l=0.18u
M_u3_3-M_u3 Z p0 VDD VDD p w=1.37u l=0.18u
.ends
.subckt AN3XD1BWP7T A1 A2 A3 Z VDD VSS 
M_u4-M_u4 net7 A1 X_u4-net10 VSS n w=1u l=0.18u
M_u4-M_u5 X_u4-net10 A2 X_u4-net13 VSS n w=1u l=0.18u
M_u4-M_u6 X_u4-net13 A3 VSS VSS n w=1u l=0.18u
M_u3-M_u2 Z net7 VSS VSS n w=1u l=0.18u
M_u4-M_u3 net7 A3 VDD VDD p w=1.37u l=0.18u
M_u4-M_u1 net7 A1 VDD VDD p w=1.37u l=0.18u
M_u4-M_u2 net7 A2 VDD VDD p w=1.37u l=0.18u
M_u3-M_u3 Z net7 VDD VDD p w=1.37u l=0.18u
.ends
.subckt AN4D0BWP7T A1 A2 A3 A4 Z VDD VSS 
M_u3-M_u2 Z net6 VSS VSS n w=0.5u l=0.18u
MU30-M_u5 net6 A1 XU30-net23 VSS n w=0.5u l=0.18u
MU30-M_u6 XU30-net23 A2 XU30-net26 VSS n w=0.5u l=0.18u
MU30-M_u7 XU30-net26 A3 XU30-net29 VSS n w=0.5u l=0.18u
MU30-M_u8 XU30-net29 A4 VSS VSS n w=0.5u l=0.18u
M_u3-M_u3 Z net6 VDD VDD p w=0.685u l=0.18u
MU30-M_u4 net6 A4 VDD VDD p w=0.685u l=0.18u
MU30-M_u3 net6 A3 VDD VDD p w=0.685u l=0.18u
MU30-M_u2 net6 A2 VDD VDD p w=0.685u l=0.18u
MU30-M_u1 net6 A1 VDD VDD p w=0.685u l=0.18u
.ends
.subckt AN4D1BWP7T A1 A2 A3 A4 Z VDD VSS 
M_u3-M_u2 Z net6 VSS VSS n w=1u l=0.18u
MU30-M_u5 net6 A1 XU30-net23 VSS n w=0.5u l=0.18u
MU30-M_u6 XU30-net23 A2 XU30-net26 VSS n w=0.5u l=0.18u
MU30-M_u7 XU30-net26 A3 XU30-net29 VSS n w=0.5u l=0.18u
MU30-M_u8 XU30-net29 A4 VSS VSS n w=0.5u l=0.18u
M_u3-M_u3 Z net6 VDD VDD p w=1.37u l=0.18u
MU30-M_u4 net6 A4 VDD VDD p w=0.685u l=0.18u
MU30-M_u3 net6 A3 VDD VDD p w=0.685u l=0.18u
MU30-M_u2 net6 A2 VDD VDD p w=0.685u l=0.18u
MU30-M_u1 net6 A1 VDD VDD p w=0.685u l=0.18u
.ends
.subckt AN4D2BWP7T A1 A2 A3 A4 Z VDD VSS 
MU18_0-M_u2 Z net19 VSS VSS n w=1u l=0.18u
MU18_1-M_u2 Z net19 VSS VSS n w=1u l=0.18u
MU20-M_u5 net19 A1 XU20-net23 VSS n w=1u l=0.18u
MU20-M_u6 XU20-net23 A2 XU20-net26 VSS n w=1u l=0.18u
MU20-M_u7 XU20-net26 A3 XU20-net29 VSS n w=1u l=0.18u
MU20-M_u8 XU20-net29 A4 VSS VSS n w=1u l=0.18u
MU18_0-M_u3 Z net19 VDD VDD p w=1.37u l=0.18u
MU18_1-M_u3 Z net19 VDD VDD p w=1.37u l=0.18u
MU20-M_u4 net19 A4 VDD VDD p w=1.37u l=0.18u
MU20-M_u3 net19 A3 VDD VDD p w=1.37u l=0.18u
MU20-M_u2 net19 A2 VDD VDD p w=1.37u l=0.18u
MU20-M_u1 net19 A1 VDD VDD p w=1.37u l=0.18u
.ends
.subckt AN4D4BWP7T A1 A2 A3 A4 Z VDD VSS 
MU18_0-M_u2 Z n0 VSS VSS n w=1u l=0.18u
MU18_1-M_u2 Z n0 VSS VSS n w=1u l=0.18u
MU18_2-M_u2 Z n0 VSS VSS n w=1u l=0.18u
MU18_3-M_u2 Z n0 VSS VSS n w=1u l=0.18u
MI4-M_u5 n0 A1 XI4-net23 VSS n w=1u l=0.18u
MI4-M_u6 XI4-net23 A2 XI4-net26 VSS n w=1u l=0.18u
MI4-M_u7 XI4-net26 A3 XI4-net29 VSS n w=1u l=0.18u
MI4-M_u8 XI4-net29 A4 VSS VSS n w=1u l=0.18u
MU30-M_u5 n0 A1 XU30-net23 VSS n w=1u l=0.18u
MU30-M_u6 XU30-net23 A2 XU30-net26 VSS n w=1u l=0.18u
MU30-M_u7 XU30-net26 A3 XU30-net29 VSS n w=1u l=0.18u
MU30-M_u8 XU30-net29 A4 VSS VSS n w=1u l=0.18u
MU18_0-M_u3 Z n0 VDD VDD p w=1.37u l=0.18u
MU18_1-M_u3 Z n0 VDD VDD p w=1.37u l=0.18u
MU18_2-M_u3 Z n0 VDD VDD p w=1.37u l=0.18u
MU18_3-M_u3 Z n0 VDD VDD p w=1.37u l=0.18u
MI4-M_u4 n0 A4 VDD VDD p w=1.37u l=0.18u
MI4-M_u3 n0 A3 VDD VDD p w=1.37u l=0.18u
MI4-M_u2 n0 A2 VDD VDD p w=1.305u l=0.18u
MI4-M_u1 n0 A1 VDD VDD p w=1.305u l=0.18u
MU30-M_u4 n0 A4 VDD VDD p w=1.37u l=0.18u
MU30-M_u3 n0 A3 VDD VDD p w=1.37u l=0.18u
MU30-M_u2 n0 A2 VDD VDD p w=1.305u l=0.18u
MU30-M_u1 n0 A1 VDD VDD p w=1.305u l=0.18u
.ends
.subckt AN4XD1BWP7T A1 A2 A3 A4 Z VDD VSS 
M_u3-M_u2 Z net6 VSS VSS n w=1u l=0.18u
MU30-M_u5 net6 A1 XU30-net23 VSS n w=1u l=0.18u
MU30-M_u6 XU30-net23 A2 XU30-net26 VSS n w=1u l=0.18u
MU30-M_u7 XU30-net26 A3 XU30-net29 VSS n w=1u l=0.18u
MU30-M_u8 XU30-net29 A4 VSS VSS n w=1u l=0.18u
M_u3-M_u3 Z net6 VDD VDD p w=1.37u l=0.18u
MU30-M_u4 net6 A4 VDD VDD p w=1.37u l=0.18u
MU30-M_u3 net6 A3 VDD VDD p w=1.37u l=0.18u
MU30-M_u2 net6 A2 VDD VDD p w=1.37u l=0.18u
MU30-M_u1 net6 A1 VDD VDD p w=1.37u l=0.18u
.ends
.subckt ANTENNABWP7T I VDD VSS 
DI3 VSS I dn 0.2037p
.ends
.subckt AO211D0BWP7T A1 A2 B C Z VDD VSS 
M_u12 net27 C VSS VSS n w=0.5u l=0.18u
M_u13 net27 B VSS VSS n w=0.5u l=0.18u
MI12-M_u10 net27 A1 XI12-net17 VSS n w=0.5u l=0.18u
MI12-M_u11 XI12-net17 A2 VSS VSS n w=0.5u l=0.18u
MI8-M_u2 Z net27 VSS VSS n w=0.5u l=0.18u
MI8-M_u3 Z net27 VDD VDD p w=0.685u l=0.18u
M_u3 net11 A1 net27 VDD p w=0.685u l=0.18u
MI0 net11 A2 net27 VDD p w=0.685u l=0.18u
MI16-MI12 net11 B XI16-net11 VDD p w=0.685u l=0.18u
MI16-MI13 XI16-net11 C VDD VDD p w=0.685u l=0.18u
.ends
.subckt AO211D1BWP7T A1 A2 B C Z VDD VSS 
M_u12 net27 C VSS VSS n w=1u l=0.18u
M_u13 net27 B VSS VSS n w=1u l=0.18u
MI12-M_u10 net27 A1 XI12-net17 VSS n w=1u l=0.18u
MI12-M_u11 XI12-net17 A2 VSS VSS n w=1u l=0.18u
MI8-M_u2 Z net27 VSS VSS n w=1u l=0.18u
MI8-M_u3 Z net27 VDD VDD p w=1.37u l=0.18u
M_u3 net11 A1 net27 VDD p w=1.37u l=0.18u
MI0 net11 A2 net27 VDD p w=1.37u l=0.18u
MI16-MI12 net11 B XI16-net11 VDD p w=1.37u l=0.18u
MI16-MI13 XI16-net11 C VDD VDD p w=1.37u l=0.18u
.ends
.subckt AO211D2BWP7T A1 A2 B C Z VDD VSS 
M_u12 net27 C VSS VSS n w=1u l=0.18u
M_u13 net27 B VSS VSS n w=1u l=0.18u
MI12-M_u10 net27 A1 XI12-net17 VSS n w=1u l=0.18u
MI12-M_u11 XI12-net17 A2 VSS VSS n w=1u l=0.18u
MI8_0-M_u2 Z net27 VSS VSS n w=1u l=0.18u
MI8_1-M_u2 Z net27 VSS VSS n w=1u l=0.18u
MI8_0-M_u3 Z net27 VDD VDD p w=1.37u l=0.18u
MI8_1-M_u3 Z net27 VDD VDD p w=1.37u l=0.18u
M_u3 net11 A1 net27 VDD p w=1.37u l=0.18u
MI0 net11 A2 net27 VDD p w=1.37u l=0.18u
MI16-MI12 net11 B XI16-net11 VDD p w=1.37u l=0.18u
MI16-MI13 XI16-net11 C VDD VDD p w=1.37u l=0.18u
.ends
.subckt AO21D0BWP7T A1 A2 B Z VDD VSS 
MI7 net32 A2 VSS VSS n w=0.5u l=0.18u
M_u7 net59 A1 net32 VSS n w=0.5u l=0.18u
MI6 net59 B VSS VSS n w=0.5u l=0.18u
MI8-M_u2 Z net59 VSS VSS n w=0.5u l=0.18u
MI8-M_u3 Z net59 VDD VDD p w=0.685u l=0.18u
M_u3 net22 A1 net59 VDD p w=0.685u l=0.18u
M_u4 net22 A2 net59 VDD p w=0.685u l=0.18u
M_u2 net22 B VDD VDD p w=0.685u l=0.18u
.ends
.subckt AO21D1BWP7T A1 A2 B Z VDD VSS 
MI7 net32 A2 VSS VSS n w=1u l=0.18u
M_u7 net59 A1 net32 VSS n w=1u l=0.18u
MI6 net59 B VSS VSS n w=1u l=0.18u
MI8-M_u2 Z net59 VSS VSS n w=1u l=0.18u
MI8-M_u3 Z net59 VDD VDD p w=1.37u l=0.18u
M_u3 net22 A1 net59 VDD p w=1.37u l=0.18u
M_u4 net22 A2 net59 VDD p w=1.37u l=0.18u
M_u2 net22 B VDD VDD p w=1.37u l=0.18u
.ends
.subckt AO21D2BWP7T A1 A2 B Z VDD VSS 
MI7 net32 A2 VSS VSS n w=1u l=0.18u
M_u7 net59 A1 net32 VSS n w=1u l=0.18u
MI6 net59 B VSS VSS n w=1u l=0.18u
MI8_0-M_u2 Z net59 VSS VSS n w=1u l=0.18u
MI8_1-M_u2 Z net59 VSS VSS n w=1u l=0.18u
MI8_0-M_u3 Z net59 VDD VDD p w=1.37u l=0.18u
MI8_1-M_u3 Z net59 VDD VDD p w=1.37u l=0.18u
M_u3 net22 A1 net59 VDD p w=1.37u l=0.18u
M_u4 net22 A2 net59 VDD p w=1.37u l=0.18u
M_u2 net22 B VDD VDD p w=1.37u l=0.18u
.ends
.subckt AO221D0BWP7T A1 A2 B1 B2 C Z VDD VSS 
MU20 net31 C VSS VSS n w=0.5u l=0.18u
MI17-M_u10 net31 B1 XI17-net17 VSS n w=0.5u l=0.18u
MI17-M_u11 XI17-net17 B2 VSS VSS n w=0.5u l=0.18u
MI1-M_u10 net31 A1 XI1-net17 VSS n w=0.5u l=0.18u
MI1-M_u11 XI1-net17 A2 VSS VSS n w=0.5u l=0.18u
MI8-M_u2 Z net31 VSS VSS n w=0.5u l=0.18u
MI8-M_u3 Z net31 VDD VDD p w=0.685u l=0.18u
MI5 net30 A1 net31 VDD p w=0.685u l=0.18u
MI4 net30 A2 net31 VDD p w=0.685u l=0.18u
MU22 VDD C net36 VDD p w=0.685u l=0.18u
MI2 net36 B2 net30 VDD p w=0.685u l=0.18u
MI3 net36 B1 net30 VDD p w=0.685u l=0.18u
.ends
.subckt AO221D1BWP7T A1 A2 B1 B2 C Z VDD VSS 
MU20 net31 C VSS VSS n w=1u l=0.18u
MI17-M_u10 net31 B1 XI17-net17 VSS n w=1u l=0.18u
MI17-M_u11 XI17-net17 B2 VSS VSS n w=1u l=0.18u
MI1-M_u10 net31 A1 XI1-net17 VSS n w=1u l=0.18u
MI1-M_u11 XI1-net17 A2 VSS VSS n w=1u l=0.18u
MI8-M_u2 Z net31 VSS VSS n w=1u l=0.18u
MI8-M_u3 Z net31 VDD VDD p w=1.37u l=0.18u
MI5 net30 A1 net31 VDD p w=1.37u l=0.18u
MI4 net30 A2 net31 VDD p w=1.37u l=0.18u
MU22 VDD C net36 VDD p w=1.37u l=0.18u
MI2 net36 B2 net30 VDD p w=1.37u l=0.18u
MI3 net36 B1 net30 VDD p w=1.37u l=0.18u
.ends
.subckt AO221D2BWP7T A1 A2 B1 B2 C Z VDD VSS 
MU20 net31 C VSS VSS n w=1u l=0.18u
MI17-M_u10 net31 B1 XI17-net17 VSS n w=1u l=0.18u
MI17-M_u11 XI17-net17 B2 VSS VSS n w=1u l=0.18u
MI1-M_u10 net31 A1 XI1-net17 VSS n w=1u l=0.18u
MI1-M_u11 XI1-net17 A2 VSS VSS n w=1u l=0.18u
MI8_0-M_u2 Z net31 VSS VSS n w=1u l=0.18u
MI8_1-M_u2 Z net31 VSS VSS n w=1u l=0.18u
MI8_0-M_u3 Z net31 VDD VDD p w=1.37u l=0.18u
MI8_1-M_u3 Z net31 VDD VDD p w=1.37u l=0.18u
MI5 net30 A1 net31 VDD p w=1.37u l=0.18u
MI4 net30 A2 net31 VDD p w=1.37u l=0.18u
MU22 VDD C net36 VDD p w=1.37u l=0.18u
MI2 net36 B2 net30 VDD p w=1.37u l=0.18u
MI3 net36 B1 net30 VDD p w=1.37u l=0.18u
.ends
.subckt AO222D0BWP7T A1 A2 B1 B2 C1 C2 Z VDD VSS 
MI14-M_u10 net39 C1 XI14-net17 VSS n w=0.5u l=0.18u
MI14-M_u11 XI14-net17 C2 VSS VSS n w=0.5u l=0.18u
MI6-M_u10 net39 A1 XI6-net17 VSS n w=0.5u l=0.18u
MI6-M_u11 XI6-net17 A2 VSS VSS n w=0.5u l=0.18u
MI13-M_u10 net39 B1 XI13-net17 VSS n w=0.5u l=0.18u
MI13-M_u11 XI13-net17 B2 VSS VSS n w=0.5u l=0.18u
MI15-M_u2 Z net39 VSS VSS n w=0.5u l=0.18u
MI15-M_u3 Z net39 VDD VDD p w=0.685u l=0.18u
MI8 VDD C1 net22 VDD p w=0.685u l=0.18u
MU27 VDD C2 net22 VDD p w=0.685u l=0.18u
MI12 net16 A1 net39 VDD p w=0.685u l=0.18u
MI11 net16 A2 net39 VDD p w=0.685u l=0.18u
MI10 net22 B1 net16 VDD p w=0.685u l=0.18u
MI9 net22 B2 net16 VDD p w=0.685u l=0.18u
.ends
.subckt AO222D1BWP7T A1 A2 B1 B2 C1 C2 Z VDD VSS 
MI14-M_u10 net39 C1 XI14-net17 VSS n w=1u l=0.18u
MI14-M_u11 XI14-net17 C2 VSS VSS n w=1u l=0.18u
MI6-M_u10 net39 A1 XI6-net17 VSS n w=1u l=0.18u
MI6-M_u11 XI6-net17 A2 VSS VSS n w=1u l=0.18u
MI13-M_u10 net39 B1 XI13-net17 VSS n w=1u l=0.18u
MI13-M_u11 XI13-net17 B2 VSS VSS n w=1u l=0.18u
MI15-M_u2 Z net39 VSS VSS n w=1u l=0.18u
MI15-M_u3 Z net39 VDD VDD p w=1.37u l=0.18u
MI8 VDD C1 net22 VDD p w=1.37u l=0.18u
MU27 VDD C2 net22 VDD p w=1.37u l=0.18u
MI12 net16 A1 net39 VDD p w=1.37u l=0.18u
MI11 net16 A2 net39 VDD p w=1.37u l=0.18u
MI10 net22 B1 net16 VDD p w=1.37u l=0.18u
MI9 net22 B2 net16 VDD p w=1.37u l=0.18u
.ends
.subckt AO222D2BWP7T A1 A2 B1 B2 C1 C2 Z VDD VSS 
MI14-M_u10 net39 C1 XI14-net17 VSS n w=1u l=0.18u
MI14-M_u11 XI14-net17 C2 VSS VSS n w=1u l=0.18u
MI6-M_u10 net39 A1 XI6-net17 VSS n w=1u l=0.18u
MI6-M_u11 XI6-net17 A2 VSS VSS n w=1u l=0.18u
MI13-M_u10 net39 B1 XI13-net17 VSS n w=1u l=0.18u
MI13-M_u11 XI13-net17 B2 VSS VSS n w=1u l=0.18u
MI15_0-M_u2 Z net39 VSS VSS n w=1u l=0.18u
MI15_1-M_u2 Z net39 VSS VSS n w=1u l=0.18u
MI15_0-M_u3 Z net39 VDD VDD p w=1.37u l=0.18u
MI15_1-M_u3 Z net39 VDD VDD p w=1.37u l=0.18u
MI8 VDD C1 net22 VDD p w=1.37u l=0.18u
MU27 VDD C2 net22 VDD p w=1.37u l=0.18u
MI12 net16 A1 net39 VDD p w=1.37u l=0.18u
MI11 net16 A2 net39 VDD p w=1.37u l=0.18u
MI10 net22 B1 net16 VDD p w=1.37u l=0.18u
MI9 net22 B2 net16 VDD p w=1.37u l=0.18u
.ends
.subckt AO22D0BWP7T A1 A2 B1 B2 Z VDD VSS 
MI18 net29 A2 VSS VSS n w=0.5u l=0.18u
MI16 net26 B1 net20 VSS n w=0.5u l=0.18u
M_u7 net26 A1 net29 VSS n w=0.5u l=0.18u
MI17 net20 B2 VSS VSS n w=0.5u l=0.18u
MI8-M_u2 Z net26 VSS VSS n w=0.5u l=0.18u
MI8-M_u3 Z net26 VDD VDD p w=0.685u l=0.18u
MI14 net26 A1 net40 VDD p w=0.685u l=0.18u
MI15 net26 A2 net40 VDD p w=0.685u l=0.18u
M_u2 net40 B2 VDD VDD p w=0.685u l=0.18u
MI13 net40 B1 VDD VDD p w=0.685u l=0.18u
.ends
.subckt AO22D1BWP7T A1 A2 B1 B2 Z VDD VSS 
MI28 net52 A1 net37 VSS n w=1u l=0.18u
MI21 net52 B1 net31 VSS n w=1u l=0.18u
MI22 net31 B2 VSS VSS n w=1u l=0.18u
MI29 net37 A2 VSS VSS n w=1u l=0.18u
MI20-M_u2 Z net52 VSS VSS n w=1u l=0.18u
MI20-M_u3 Z net52 VDD VDD p w=1.37u l=0.18u
MI15 net54 B2 VDD VDD p w=1.37u l=0.18u
MI18 net52 A2 net54 VDD p w=1.37u l=0.18u
MI17 net54 B1 VDD VDD p w=1.37u l=0.18u
MI19 net52 A1 net54 VDD p w=1.37u l=0.18u
.ends
.subckt AO22D2BWP7T A1 A2 B1 B2 Z VDD VSS 
MI28 net52 A1 net37 VSS n w=1u l=0.18u
MI21 net52 B1 net31 VSS n w=1u l=0.18u
MI22 net31 B2 VSS VSS n w=1u l=0.18u
MI29 net37 A2 VSS VSS n w=1u l=0.18u
MI20_0-M_u2 Z net52 VSS VSS n w=1u l=0.18u
MI20_1-M_u2 Z net52 VSS VSS n w=1u l=0.18u
MI20_0-M_u3 Z net52 VDD VDD p w=1.37u l=0.18u
MI20_1-M_u3 Z net52 VDD VDD p w=1.37u l=0.18u
MI15 net54 B2 VDD VDD p w=1.37u l=0.18u
MI18 net52 A2 net54 VDD p w=1.37u l=0.18u
MI17 net54 B1 VDD VDD p w=1.37u l=0.18u
MI19 net52 A1 net54 VDD p w=1.37u l=0.18u
.ends
.subckt AO31D0BWP7T A1 A2 A3 B Z VDD VSS 
MU14 net26 B VSS VSS n w=0.5u l=0.18u
MI20-MI12 XI20-net13 A3 VSS VSS n w=0.5u l=0.18u
MI20-M_u10 net26 A1 XI20-net17 VSS n w=0.5u l=0.18u
MI20-M_u11 XI20-net17 A2 XI20-net13 VSS n w=0.5u l=0.18u
MI8-M_u2 Z net26 VSS VSS n w=0.5u l=0.18u
MI8-M_u3 Z net26 VDD VDD p w=0.685u l=0.18u
MU17 net26 A1 net19 VDD p w=0.685u l=0.18u
MU18 net26 A3 net19 VDD p w=0.685u l=0.18u
MU16 net26 A2 net19 VDD p w=0.685u l=0.18u
MU20 net19 B VDD VDD p w=0.685u l=0.18u
.ends
.subckt AO31D1BWP7T A1 A2 A3 B Z VDD VSS 
MU14 net26 B VSS VSS n w=1u l=0.18u
MI20-MI12 XI20-net13 A3 VSS VSS n w=1u l=0.18u
MI20-M_u10 net26 A1 XI20-net17 VSS n w=1u l=0.18u
MI20-M_u11 XI20-net17 A2 XI20-net13 VSS n w=1u l=0.18u
MI8-M_u2 Z net26 VSS VSS n w=1u l=0.18u
MI8-M_u3 Z net26 VDD VDD p w=1.37u l=0.18u
MU17 net26 A1 net19 VDD p w=1.37u l=0.18u
MU18 net26 A3 net19 VDD p w=1.37u l=0.18u
MU16 net26 A2 net19 VDD p w=1.37u l=0.18u
MU20 net19 B VDD VDD p w=1.37u l=0.18u
.ends
.subckt AO31D2BWP7T A1 A2 A3 B Z VDD VSS 
MU14 net26 B VSS VSS n w=1u l=0.18u
MI20-MI12 XI20-net13 A3 VSS VSS n w=1u l=0.18u
MI20-M_u10 net26 A1 XI20-net17 VSS n w=1u l=0.18u
MI20-M_u11 XI20-net17 A2 XI20-net13 VSS n w=1u l=0.18u
MI8_0-M_u2 Z net26 VSS VSS n w=1u l=0.18u
MI8_1-M_u2 Z net26 VSS VSS n w=1u l=0.18u
MI8_0-M_u3 Z net26 VDD VDD p w=1.37u l=0.18u
MI8_1-M_u3 Z net26 VDD VDD p w=1.37u l=0.18u
MU17 net26 A1 net19 VDD p w=1.37u l=0.18u
MU18 net26 A3 net19 VDD p w=1.37u l=0.18u
MU16 net26 A2 net19 VDD p w=1.37u l=0.18u
MU20 net19 B VDD VDD p w=1.37u l=0.18u
.ends
.subckt AO32D0BWP7T A1 A2 A3 B1 B2 Z VDD VSS 
MI17-M_u10 net27 B1 XI17-net17 VSS n w=0.5u l=0.18u
MI17-M_u11 XI17-net17 B2 VSS VSS n w=0.5u l=0.18u
MI20-MI12 XI20-net13 A3 VSS VSS n w=0.5u l=0.18u
MI20-M_u10 net27 A1 XI20-net17 VSS n w=0.5u l=0.18u
MI20-M_u11 XI20-net17 A2 XI20-net13 VSS n w=0.5u l=0.18u
MI8-M_u2 Z net27 VSS VSS n w=0.5u l=0.18u
MI8-M_u3 Z net27 VDD VDD p w=0.685u l=0.18u
MU17 net27 A1 net23 VDD p w=0.685u l=0.18u
MU18 net27 A3 net23 VDD p w=0.685u l=0.18u
MU16 net27 A2 net23 VDD p w=0.685u l=0.18u
MU20 net23 B1 VDD VDD p w=0.685u l=0.18u
MU19 net23 B2 VDD VDD p w=0.685u l=0.18u
.ends
.subckt AO32D1BWP7T A1 A2 A3 B1 B2 Z VDD VSS 
MI17-M_u10 net27 B1 XI17-net17 VSS n w=1u l=0.18u
MI17-M_u11 XI17-net17 B2 VSS VSS n w=1u l=0.18u
MI20-MI12 XI20-net13 A3 VSS VSS n w=1u l=0.18u
MI20-M_u10 net27 A1 XI20-net17 VSS n w=1u l=0.18u
MI20-M_u11 XI20-net17 A2 XI20-net13 VSS n w=1u l=0.18u
MI8-M_u2 Z net27 VSS VSS n w=1u l=0.18u
MI8-M_u3 Z net27 VDD VDD p w=1.37u l=0.18u
MU17 net27 A1 net23 VDD p w=1.37u l=0.18u
MU18 net27 A3 net23 VDD p w=1.37u l=0.18u
MU16 net27 A2 net23 VDD p w=1.37u l=0.18u
MU20 net23 B1 VDD VDD p w=1.37u l=0.18u
MU19 net23 B2 VDD VDD p w=1.37u l=0.18u
.ends
.subckt AO32D2BWP7T A1 A2 A3 B1 B2 Z VDD VSS 
MI17-M_u10 net27 B1 XI17-net17 VSS n w=1u l=0.18u
MI17-M_u11 XI17-net17 B2 VSS VSS n w=1u l=0.18u
MI20-MI12 XI20-net13 A3 VSS VSS n w=1u l=0.18u
MI20-M_u10 net27 A1 XI20-net17 VSS n w=1u l=0.18u
MI20-M_u11 XI20-net17 A2 XI20-net13 VSS n w=1u l=0.18u
MI8_0-M_u2 Z net27 VSS VSS n w=1u l=0.18u
MI8_1-M_u2 Z net27 VSS VSS n w=1u l=0.18u
MI8_0-M_u3 Z net27 VDD VDD p w=1.37u l=0.18u
MI8_1-M_u3 Z net27 VDD VDD p w=1.37u l=0.18u
MU17 net27 A1 net23 VDD p w=1.37u l=0.18u
MU18 net27 A3 net23 VDD p w=1.37u l=0.18u
MU16 net27 A2 net23 VDD p w=1.37u l=0.18u
MU20 net23 B1 VDD VDD p w=1.37u l=0.18u
MU19 net23 B2 VDD VDD p w=1.37u l=0.18u
.ends
.subckt AO33D0BWP7T A1 A2 A3 B1 B2 B3 Z VDD VSS 
MI14-MI12 XI14-net13 A3 VSS VSS n w=0.5u l=0.18u
MI14-M_u10 net30 A1 XI14-net17 VSS n w=0.5u l=0.18u
MI14-M_u11 XI14-net17 A2 XI14-net13 VSS n w=0.5u l=0.18u
MI7-MI12 XI7-net13 B3 VSS VSS n w=0.5u l=0.18u
MI7-M_u10 net30 B1 XI7-net17 VSS n w=0.5u l=0.18u
MI7-M_u11 XI7-net17 B2 XI7-net13 VSS n w=0.5u l=0.18u
MI8-M_u2 Z net30 VSS VSS n w=0.5u l=0.18u
MI8-M_u3 Z net30 VDD VDD p w=0.685u l=0.18u
MI6 net40 A1 net30 VDD p w=0.685u l=0.18u
M_u16 VDD B3 net40 VDD p w=0.685u l=0.18u
MI3 VDD B1 net40 VDD p w=0.685u l=0.18u
MI4 net40 A3 net30 VDD p w=0.685u l=0.18u
MI5 net40 A2 net30 VDD p w=0.685u l=0.18u
MI2 VDD B2 net40 VDD p w=0.685u l=0.18u
.ends
.subckt AO33D1BWP7T A1 A2 A3 B1 B2 B3 Z VDD VSS 
MI14-MI12 XI14-net13 A3 VSS VSS n w=1u l=0.18u
MI14-M_u10 net30 A1 XI14-net17 VSS n w=1u l=0.18u
MI14-M_u11 XI14-net17 A2 XI14-net13 VSS n w=1u l=0.18u
MI15-MI12 XI15-net13 B3 VSS VSS n w=1u l=0.18u
MI15-M_u10 net30 B1 XI15-net17 VSS n w=1u l=0.18u
MI15-M_u11 XI15-net17 B2 XI15-net13 VSS n w=1u l=0.18u
MI8-M_u2 Z net30 VSS VSS n w=1u l=0.18u
MI8-M_u3 Z net30 VDD VDD p w=1.37u l=0.18u
MI6 net40 A1 net30 VDD p w=1.37u l=0.18u
MI13 VDD B3 net40 VDD p w=1.37u l=0.18u
MI11 VDD B1 net40 VDD p w=1.37u l=0.18u
MI10 net40 A3 net30 VDD p w=1.37u l=0.18u
MI9 net40 A2 net30 VDD p w=1.37u l=0.18u
MI12 VDD B2 net40 VDD p w=1.37u l=0.18u
.ends
.subckt AO33D2BWP7T A1 A2 A3 B1 B2 B3 Z VDD VSS 
MI14-MI12 XI14-net13 A3 VSS VSS n w=1u l=0.18u
MI14-M_u10 net30 A1 XI14-net17 VSS n w=1u l=0.18u
MI14-M_u11 XI14-net17 A2 XI14-net13 VSS n w=1u l=0.18u
MI15-MI12 XI15-net13 B3 VSS VSS n w=1u l=0.18u
MI15-M_u10 net30 B1 XI15-net17 VSS n w=1u l=0.18u
MI15-M_u11 XI15-net17 B2 XI15-net13 VSS n w=1u l=0.18u
MI8_0-M_u2 Z net30 VSS VSS n w=1u l=0.18u
MI8_1-M_u2 Z net30 VSS VSS n w=1u l=0.18u
MI8_0-M_u3 Z net30 VDD VDD p w=1.37u l=0.18u
MI8_1-M_u3 Z net30 VDD VDD p w=1.37u l=0.18u
MI6 net40 A1 net30 VDD p w=1.37u l=0.18u
MI13 VDD B3 net40 VDD p w=1.37u l=0.18u
MI11 VDD B1 net40 VDD p w=1.37u l=0.18u
MI10 net40 A3 net30 VDD p w=1.37u l=0.18u
MI9 net40 A2 net30 VDD p w=1.37u l=0.18u
MI12 VDD B2 net40 VDD p w=1.37u l=0.18u
.ends
.subckt AOI211D0BWP7T A1 A2 B C ZN VDD VSS 
M_u12 ZN C VSS VSS n w=0.5u l=0.18u
M_u13 ZN B VSS VSS n w=0.5u l=0.18u
MI12-M_u10 ZN A1 XI12-net17 VSS n w=0.5u l=0.18u
MI12-M_u11 XI12-net17 A2 VSS VSS n w=0.5u l=0.18u
M_u3 net11 A1 ZN VDD p w=0.685u l=0.18u
MI0 net11 A2 ZN VDD p w=0.685u l=0.18u
MI16-MI12 net11 B XI16-net11 VDD p w=0.685u l=0.18u
MI16-MI13 XI16-net11 C VDD VDD p w=0.685u l=0.18u
.ends
.subckt AOI211D1BWP7T A1 A2 B C ZN VDD VSS 
M_u12 ZN C VSS VSS n w=1u l=0.18u
M_u13 ZN B VSS VSS n w=1u l=0.18u
MI17-M_u10 ZN A1 XI17-net17 VSS n w=1u l=0.18u
MI17-M_u11 XI17-net17 A2 VSS VSS n w=1u l=0.18u
M_u3 net71 A1 ZN VDD p w=1.37u l=0.18u
M_u2 net71 A2 ZN VDD p w=1.37u l=0.18u
MI19-MI12 net71 B XI19-net11 VDD p w=1.37u l=0.18u
MI19-MI13 XI19-net11 C VDD VDD p w=1.37u l=0.18u
.ends
.subckt AOI211D2BWP7T A1 A2 B C ZN VDD VSS 
M_u12_0 ZN C VSS VSS n w=1u l=0.18u
M_u12_1 ZN C VSS VSS n w=1u l=0.18u
M_u13_0 ZN B VSS VSS n w=1u l=0.18u
M_u13_1 ZN B VSS VSS n w=1u l=0.18u
MI17_0-M_u10 ZN A1 XI17_0-net17 VSS n w=1u l=0.18u
MI17_0-M_u11 XI17_0-net17 A2 VSS VSS n w=1u l=0.18u
MI17_1-M_u10 ZN A1 XI17_1-net17 VSS n w=1u l=0.18u
MI17_1-M_u11 XI17_1-net17 A2 VSS VSS n w=1u l=0.18u
M_u3_0 net34 A1 ZN VDD p w=1.37u l=0.18u
M_u3_1 net34 A1 ZN VDD p w=1.37u l=0.18u
M_u2_0 net34 A2 ZN VDD p w=1.37u l=0.18u
M_u2_1 net34 A2 ZN VDD p w=1.37u l=0.18u
MI19-MI12 net34 B XI19-net11 VDD p w=1.37u l=0.18u
MI19-MI13 XI19-net11 C VDD VDD p w=1.37u l=0.18u
MI2-MI12 net34 B XI2-net11 VDD p w=1.37u l=0.18u
MI2-MI13 XI2-net11 C VDD VDD p w=1.37u l=0.18u
.ends
.subckt AOI211XD0BWP7T A1 A2 B C ZN VDD VSS 
M_u12 ZN C VSS VSS n w=0.5u l=0.18u
M_u13 ZN B VSS VSS n w=0.5u l=0.18u
MI12-M_u10 ZN A1 XI12-net17 VSS n w=0.5u l=0.18u
MI12-M_u11 XI12-net17 A2 VSS VSS n w=0.5u l=0.18u
M_u3 net11 A1 ZN VDD p w=1.37u l=0.18u
MI0 net11 A2 ZN VDD p w=1.37u l=0.18u
MI16-MI12 net11 B XI16-net11 VDD p w=1.37u l=0.18u
MI16-MI13 XI16-net11 C VDD VDD p w=1.37u l=0.18u
.ends
.subckt AOI211XD1BWP7T A1 A2 B C ZN VDD VSS 
M_u12 ZN C VSS VSS n w=1u l=0.18u
M_u13 ZN B VSS VSS n w=1u l=0.18u
MI17-M_u10 ZN A1 XI17-net17 VSS n w=1u l=0.18u
MI17-M_u11 XI17-net17 A2 VSS VSS n w=1u l=0.18u
MI1 net034 B net030 VDD p w=1.37u l=0.18u
MI0 VDD C net034 VDD p w=1.37u l=0.18u
MI2 net034 B net030 VDD p w=1.37u l=0.18u
MI3 VDD C net034 VDD p w=1.37u l=0.18u
M_u3 net030 A1 ZN VDD p w=2.74u l=0.18u
M_u2 net030 A2 ZN VDD p w=2.74u l=0.18u
.ends
.subckt AOI211XD2BWP7T A1 A2 B C ZN VDD VSS 
M_u12_0 ZN C VSS VSS n w=1u l=0.18u
M_u12_1 ZN C VSS VSS n w=1u l=0.18u
M_u13_0 ZN B VSS VSS n w=1u l=0.18u
M_u13_1 ZN B VSS VSS n w=1u l=0.18u
MI17-M_u10 ZN A1 XI17-net17 VSS n w=2u l=0.18u
MI17-M_u11 XI17-net17 A2 VSS VSS n w=2u l=0.18u
M_u3 net034 A1 ZN VDD p w=5.48u l=0.18u
M_u2 net034 A2 ZN VDD p w=5.48u l=0.18u
MI19-MI12 net034 B XI19-net11 VDD p w=5.48u l=0.18u
MI19-MI13 XI19-net11 C VDD VDD p w=5.48u l=0.18u
.ends
.subckt AOI21D0BWP7T A1 A2 B ZN VDD VSS 
MI2 ZN A1 net27 VSS n w=0.5u l=0.18u
MI7 net27 A2 VSS VSS n w=0.5u l=0.18u
MI6 ZN B VSS VSS n w=0.5u l=0.18u
MI5 ZN A2 net13 VDD p w=0.685u l=0.18u
M_u2 net13 B VDD VDD p w=0.685u l=0.18u
MI4 ZN A1 net13 VDD p w=0.685u l=0.18u
.ends
.subckt AOI21D1BWP7T A1 A2 B ZN VDD VSS 
MI2 ZN A1 net27 VSS n w=1u l=0.18u
MI3 net27 A2 VSS VSS n w=1u l=0.18u
M_u7 ZN B VSS VSS n w=1u l=0.18u
M_u4 net13 A2 ZN VDD p w=1.37u l=0.18u
M_u2 net13 B VDD VDD p w=1.37u l=0.18u
M_u3 net13 A1 ZN VDD p w=1.37u l=0.18u
.ends
.subckt AOI21D2BWP7T A1 A2 B ZN VDD VSS 
MI2 ZN A1 p0 VSS n w=1u l=0.18u
MI12 p0 A2 VSS VSS n w=1u l=0.18u
MI13 ZN A1 net23 VSS n w=1u l=0.18u
MI14 net23 A2 VSS VSS n w=1u l=0.18u
MI11_0 ZN B VSS VSS n w=1u l=0.18u
MI11_1 ZN B VSS VSS n w=1u l=0.18u
MI8 ZN A2 net74 VDD p w=2.74u l=0.18u
M_u2 net74 B VDD VDD p w=2.74u l=0.18u
MI9 ZN A1 net74 VDD p w=2.74u l=0.18u
.ends
.subckt AOI221D0BWP7T A1 A2 B1 B2 C ZN VDD VSS 
MU20 ZN C VSS VSS n w=0.5u l=0.18u
MI17-M_u10 ZN B1 XI17-net17 VSS n w=0.5u l=0.18u
MI17-M_u11 XI17-net17 B2 VSS VSS n w=0.5u l=0.18u
MI1-M_u10 ZN A1 XI1-net17 VSS n w=0.5u l=0.18u
MI1-M_u11 XI1-net17 A2 VSS VSS n w=0.5u l=0.18u
MI5 net30 A1 ZN VDD p w=0.685u l=0.18u
MI4 net30 A2 ZN VDD p w=0.685u l=0.18u
MU22 VDD C net36 VDD p w=0.685u l=0.18u
MI2 net36 B2 net30 VDD p w=0.685u l=0.18u
MI3 net36 B1 net30 VDD p w=0.685u l=0.18u
.ends
.subckt AOI221D1BWP7T A1 A2 B1 B2 C ZN VDD VSS 
MU20 ZN C VSS VSS n w=1u l=0.18u
MI17-M_u10 ZN B1 XI17-net17 VSS n w=1u l=0.18u
MI17-M_u11 XI17-net17 B2 VSS VSS n w=1u l=0.18u
MI1-M_u10 ZN A1 XI1-net17 VSS n w=1u l=0.18u
MI1-M_u11 XI1-net17 A2 VSS VSS n w=1u l=0.18u
M_u5 net36 B2 net30 VDD p w=1.37u l=0.18u
MU22 VDD C net36 VDD p w=1.37u l=0.18u
M_u2 net30 A1 ZN VDD p w=1.37u l=0.18u
M_u3 net30 A2 ZN VDD p w=1.37u l=0.18u
M_u4 net36 B1 net30 VDD p w=1.37u l=0.18u
.ends
.subckt AOI221D2BWP7T A1 A2 B1 B2 C ZN VDD VSS 
MU20 ZN C VSS VSS n w=2u l=0.18u
MI17_0-M_u10 ZN B1 XI17_0-net17 VSS n w=1u l=0.18u
MI17_0-M_u11 XI17_0-net17 B2 VSS VSS n w=1u l=0.18u
MI17_1-M_u10 ZN B1 XI17_1-net17 VSS n w=1u l=0.18u
MI17_1-M_u11 XI17_1-net17 B2 VSS VSS n w=1u l=0.18u
MI8_0-M_u10 ZN A1 XI8_0-net17 VSS n w=1u l=0.18u
MI8_0-M_u11 XI8_0-net17 A2 VSS VSS n w=1u l=0.18u
MI8_1-M_u10 ZN A1 XI8_1-net17 VSS n w=1u l=0.18u
MI8_1-M_u11 XI8_1-net17 A2 VSS VSS n w=1u l=0.18u
MI7 net27 A1 ZN VDD p w=2.74u l=0.18u
MI4 net33 B2 net27 VDD p w=2.74u l=0.18u
MU22 VDD C net33 VDD p w=2.74u l=0.18u
MI6 net27 A2 ZN VDD p w=2.74u l=0.18u
MI5 net33 B1 net27 VDD p w=2.74u l=0.18u
.ends
.subckt AOI222D0BWP7T A1 A2 B1 B2 C1 C2 ZN VDD VSS 
MI14-M_u10 ZN C1 XI14-net17 VSS n w=0.5u l=0.18u
MI14-M_u11 XI14-net17 C2 VSS VSS n w=0.5u l=0.18u
MI6-M_u10 ZN A1 XI6-net17 VSS n w=0.5u l=0.18u
MI6-M_u11 XI6-net17 A2 VSS VSS n w=0.5u l=0.18u
MI13-M_u10 ZN B1 XI13-net17 VSS n w=0.5u l=0.18u
MI13-M_u11 XI13-net17 B2 VSS VSS n w=0.5u l=0.18u
MI8 VDD C1 net22 VDD p w=0.685u l=0.18u
MU27 VDD C2 net22 VDD p w=0.685u l=0.18u
MI12 net16 A1 ZN VDD p w=0.685u l=0.18u
MI11 net16 A2 ZN VDD p w=0.685u l=0.18u
MI10 net22 B1 net16 VDD p w=0.685u l=0.18u
MI9 net22 B2 net16 VDD p w=0.685u l=0.18u
.ends
.subckt AOI222D1BWP7T A1 A2 B1 B2 C1 C2 ZN VDD VSS 
MI17-M_u10 ZN C1 XI17-net17 VSS n w=1u l=0.18u
MI17-M_u11 XI17-net17 C2 VSS VSS n w=1u l=0.18u
MI6-M_u10 ZN A1 XI6-net17 VSS n w=1u l=0.18u
MI6-M_u11 XI6-net17 A2 VSS VSS n w=1u l=0.18u
MI7-M_u10 ZN B1 XI7-net17 VSS n w=1u l=0.18u
MI7-M_u11 XI7-net17 B2 VSS VSS n w=1u l=0.18u
MU22 VDD C1 net22 VDD p w=1.37u l=0.18u
MU27 VDD C2 net22 VDD p w=1.37u l=0.18u
M_u2 net16 A1 ZN VDD p w=1.37u l=0.18u
M_u3 net16 A2 ZN VDD p w=1.37u l=0.18u
M_u4 net22 B1 net16 VDD p w=1.37u l=0.18u
M_u5 net22 B2 net16 VDD p w=1.37u l=0.18u
.ends
.subckt AOI222D2BWP7T A1 A2 B1 B2 C1 C2 ZN VDD VSS 
MI21_0-M_u10 ZN C1 XI21_0-net17 VSS n w=1u l=0.18u
MI21_0-M_u11 XI21_0-net17 C2 VSS VSS n w=1u l=0.18u
MI21_1-M_u10 ZN C1 XI21_1-net17 VSS n w=1u l=0.18u
MI21_1-M_u11 XI21_1-net17 C2 VSS VSS n w=1u l=0.18u
MI6_0-M_u10 ZN A1 XI6_0-net17 VSS n w=1u l=0.18u
MI6_0-M_u11 XI6_0-net17 A2 VSS VSS n w=1u l=0.18u
MI6_1-M_u10 ZN A1 XI6_1-net17 VSS n w=1u l=0.18u
MI6_1-M_u11 XI6_1-net17 A2 VSS VSS n w=1u l=0.18u
MI20_0-M_u10 ZN B1 XI20_0-net17 VSS n w=1u l=0.18u